
---------- Begin Simulation Statistics ----------
simSeconds                                   0.058776                       # Number of seconds simulated (Second)
simTicks                                  58776128250                       # Number of ticks simulated (Tick)
finalTick                                 58776128250                       # Number of ticks from beginning of simulation (restored from checkpoints and never reset) (Tick)
simFreq                                  1000000000000                       # The number of ticks per simulated second ((Tick/Second))
hostSeconds                                   1221.53                       # Real time elapsed on the host (Second)
hostTickRate                                 48116669                       # The number of ticks simulated per host second (ticks/s) ((Tick/Second))
hostMemory                                     765508                       # Number of bytes of host memory used (Byte)
simInsts                                    111921753                       # Number of instructions simulated (Count)
simOps                                      203385577                       # Number of ops (including micro ops) simulated (Count)
hostInstRate                                    91624                       # Simulator instruction rate (inst/s) ((Count/Second))
hostOpRate                                     166500                       # Simulator op (including micro ops) rate (op/s) ((Count/Second))
system.clk_domain.clock                          1000                       # Clock period in ticks (Tick)
system.cpu0.numCycles                       235104514                       # Number of cpu cycles simulated (Cycle)
system.cpu0.numWorkItemsStarted                     0                       # Number of work items this cpu started (Count)
system.cpu0.numWorkItemsCompleted                   0                       # Number of work items this cpu completed (Count)
system.cpu0.instsAdded                       75994892                       # Number of instructions added to the IQ (excludes non-spec) (Count)
system.cpu0.nonSpecInstsAdded                    1178                       # Number of non-speculative instructions added to the IQ (Count)
system.cpu0.instsIssued                      75934863                       # Number of instructions issued (Count)
system.cpu0.squashedInstsIssued                  3617                       # Number of squashed instructions issued (Count)
system.cpu0.squashedInstsExamined              614959                       # Number of squashed instructions iterated over during squash; mainly for profiling (Count)
system.cpu0.squashedOperandsExamined           739376                       # Number of squashed operands that are examined and possibly removed from graph (Count)
system.cpu0.squashedNonSpecRemoved                392                       # Number of squashed non-spec instructions that were removed (Count)
system.cpu0.numIssuedDist::samples          234787191                       # Number of insts issued each cycle (Count)
system.cpu0.numIssuedDist::mean              0.323420                       # Number of insts issued each cycle (Count)
system.cpu0.numIssuedDist::stdev             1.114557                       # Number of insts issued each cycle (Count)
system.cpu0.numIssuedDist::underflows               0      0.00%      0.00% # Number of insts issued each cycle (Count)
system.cpu0.numIssuedDist::0                209527870     89.24%     89.24% # Number of insts issued each cycle (Count)
system.cpu0.numIssuedDist::1                  7058859      3.01%     92.25% # Number of insts issued each cycle (Count)
system.cpu0.numIssuedDist::2                  5776640      2.46%     94.71% # Number of insts issued each cycle (Count)
system.cpu0.numIssuedDist::3                  2184163      0.93%     95.64% # Number of insts issued each cycle (Count)
system.cpu0.numIssuedDist::4                  5368846      2.29%     97.93% # Number of insts issued each cycle (Count)
system.cpu0.numIssuedDist::5                  1714232      0.73%     98.66% # Number of insts issued each cycle (Count)
system.cpu0.numIssuedDist::6                  1776621      0.76%     99.41% # Number of insts issued each cycle (Count)
system.cpu0.numIssuedDist::7                   975715      0.42%     99.83% # Number of insts issued each cycle (Count)
system.cpu0.numIssuedDist::8                   404245      0.17%    100.00% # Number of insts issued each cycle (Count)
system.cpu0.numIssuedDist::overflows                0      0.00%    100.00% # Number of insts issued each cycle (Count)
system.cpu0.numIssuedDist::min_value                0                       # Number of insts issued each cycle (Count)
system.cpu0.numIssuedDist::max_value                8                       # Number of insts issued each cycle (Count)
system.cpu0.numIssuedDist::total            234787191                       # Number of insts issued each cycle (Count)
system.cpu0.statFuBusy::No_OpClass                  0      0.00%      0.00% # attempts to use FU when none available (Count)
system.cpu0.statFuBusy::IntAlu                  16453      2.12%      2.12% # attempts to use FU when none available (Count)
system.cpu0.statFuBusy::IntMult                     0      0.00%      2.12% # attempts to use FU when none available (Count)
system.cpu0.statFuBusy::IntDiv                      0      0.00%      2.12% # attempts to use FU when none available (Count)
system.cpu0.statFuBusy::FloatAdd                    0      0.00%      2.12% # attempts to use FU when none available (Count)
system.cpu0.statFuBusy::FloatCmp                    0      0.00%      2.12% # attempts to use FU when none available (Count)
system.cpu0.statFuBusy::FloatCvt                    0      0.00%      2.12% # attempts to use FU when none available (Count)
system.cpu0.statFuBusy::FloatMult                   0      0.00%      2.12% # attempts to use FU when none available (Count)
system.cpu0.statFuBusy::FloatMultAcc                0      0.00%      2.12% # attempts to use FU when none available (Count)
system.cpu0.statFuBusy::FloatDiv                    0      0.00%      2.12% # attempts to use FU when none available (Count)
system.cpu0.statFuBusy::FloatMisc                   0      0.00%      2.12% # attempts to use FU when none available (Count)
system.cpu0.statFuBusy::FloatSqrt                   0      0.00%      2.12% # attempts to use FU when none available (Count)
system.cpu0.statFuBusy::SimdAdd                     1      0.00%      2.12% # attempts to use FU when none available (Count)
system.cpu0.statFuBusy::SimdAddAcc                  0      0.00%      2.12% # attempts to use FU when none available (Count)
system.cpu0.statFuBusy::SimdAlu                   121      0.02%      2.13% # attempts to use FU when none available (Count)
system.cpu0.statFuBusy::SimdCmp                     0      0.00%      2.13% # attempts to use FU when none available (Count)
system.cpu0.statFuBusy::SimdCvt                   145      0.02%      2.15% # attempts to use FU when none available (Count)
system.cpu0.statFuBusy::SimdMisc                   51      0.01%      2.16% # attempts to use FU when none available (Count)
system.cpu0.statFuBusy::SimdMult                    0      0.00%      2.16% # attempts to use FU when none available (Count)
system.cpu0.statFuBusy::SimdMultAcc                 0      0.00%      2.16% # attempts to use FU when none available (Count)
system.cpu0.statFuBusy::SimdShift                  20      0.00%      2.16% # attempts to use FU when none available (Count)
system.cpu0.statFuBusy::SimdShiftAcc                0      0.00%      2.16% # attempts to use FU when none available (Count)
system.cpu0.statFuBusy::SimdDiv                     0      0.00%      2.16% # attempts to use FU when none available (Count)
system.cpu0.statFuBusy::SimdSqrt                    0      0.00%      2.16% # attempts to use FU when none available (Count)
system.cpu0.statFuBusy::SimdFloatAdd           698889     89.92%     92.08% # attempts to use FU when none available (Count)
system.cpu0.statFuBusy::SimdFloatAlu                0      0.00%     92.08% # attempts to use FU when none available (Count)
system.cpu0.statFuBusy::SimdFloatCmp                0      0.00%     92.08% # attempts to use FU when none available (Count)
system.cpu0.statFuBusy::SimdFloatCvt                0      0.00%     92.08% # attempts to use FU when none available (Count)
system.cpu0.statFuBusy::SimdFloatDiv                0      0.00%     92.08% # attempts to use FU when none available (Count)
system.cpu0.statFuBusy::SimdFloatMisc               0      0.00%     92.08% # attempts to use FU when none available (Count)
system.cpu0.statFuBusy::SimdFloatMult               0      0.00%     92.08% # attempts to use FU when none available (Count)
system.cpu0.statFuBusy::SimdFloatMultAcc            0      0.00%     92.08% # attempts to use FU when none available (Count)
system.cpu0.statFuBusy::SimdFloatSqrt               0      0.00%     92.08% # attempts to use FU when none available (Count)
system.cpu0.statFuBusy::SimdReduceAdd               0      0.00%     92.08% # attempts to use FU when none available (Count)
system.cpu0.statFuBusy::SimdReduceAlu               0      0.00%     92.08% # attempts to use FU when none available (Count)
system.cpu0.statFuBusy::SimdReduceCmp               0      0.00%     92.08% # attempts to use FU when none available (Count)
system.cpu0.statFuBusy::SimdFloatReduceAdd            0      0.00%     92.08% # attempts to use FU when none available (Count)
system.cpu0.statFuBusy::SimdFloatReduceCmp            0      0.00%     92.08% # attempts to use FU when none available (Count)
system.cpu0.statFuBusy::SimdAes                     0      0.00%     92.08% # attempts to use FU when none available (Count)
system.cpu0.statFuBusy::SimdAesMix                  0      0.00%     92.08% # attempts to use FU when none available (Count)
system.cpu0.statFuBusy::SimdSha1Hash                0      0.00%     92.08% # attempts to use FU when none available (Count)
system.cpu0.statFuBusy::SimdSha1Hash2               0      0.00%     92.08% # attempts to use FU when none available (Count)
system.cpu0.statFuBusy::SimdSha256Hash              0      0.00%     92.08% # attempts to use FU when none available (Count)
system.cpu0.statFuBusy::SimdSha256Hash2             0      0.00%     92.08% # attempts to use FU when none available (Count)
system.cpu0.statFuBusy::SimdShaSigma2               0      0.00%     92.08% # attempts to use FU when none available (Count)
system.cpu0.statFuBusy::SimdShaSigma3               0      0.00%     92.08% # attempts to use FU when none available (Count)
system.cpu0.statFuBusy::SimdPredAlu                 0      0.00%     92.08% # attempts to use FU when none available (Count)
system.cpu0.statFuBusy::MemRead                  1869      0.24%     92.32% # attempts to use FU when none available (Count)
system.cpu0.statFuBusy::MemWrite                 1062      0.14%     92.45% # attempts to use FU when none available (Count)
system.cpu0.statFuBusy::FloatMemRead             1341      0.17%     92.63% # attempts to use FU when none available (Count)
system.cpu0.statFuBusy::FloatMemWrite           57303      7.37%    100.00% # attempts to use FU when none available (Count)
system.cpu0.statFuBusy::IprAccess                   0      0.00%    100.00% # attempts to use FU when none available (Count)
system.cpu0.statFuBusy::InstPrefetch                0      0.00%    100.00% # attempts to use FU when none available (Count)
system.cpu0.statIssuedInstType_0::No_OpClass        25211      0.03%      0.03% # Number of instructions issued per FU type, per thread (Count)
system.cpu0.statIssuedInstType_0::IntAlu     44715016     58.89%     58.92% # Number of instructions issued per FU type, per thread (Count)
system.cpu0.statIssuedInstType_0::IntMult          263      0.00%     58.92% # Number of instructions issued per FU type, per thread (Count)
system.cpu0.statIssuedInstType_0::IntDiv         2964      0.00%     58.92% # Number of instructions issued per FU type, per thread (Count)
system.cpu0.statIssuedInstType_0::FloatAdd      4755932      6.26%     65.19% # Number of instructions issued per FU type, per thread (Count)
system.cpu0.statIssuedInstType_0::FloatCmp            0      0.00%     65.19% # Number of instructions issued per FU type, per thread (Count)
system.cpu0.statIssuedInstType_0::FloatCvt          484      0.00%     65.19% # Number of instructions issued per FU type, per thread (Count)
system.cpu0.statIssuedInstType_0::FloatMult            0      0.00%     65.19% # Number of instructions issued per FU type, per thread (Count)
system.cpu0.statIssuedInstType_0::FloatMultAcc            0      0.00%     65.19% # Number of instructions issued per FU type, per thread (Count)
system.cpu0.statIssuedInstType_0::FloatDiv            0      0.00%     65.19% # Number of instructions issued per FU type, per thread (Count)
system.cpu0.statIssuedInstType_0::FloatMisc            0      0.00%     65.19% # Number of instructions issued per FU type, per thread (Count)
system.cpu0.statIssuedInstType_0::FloatSqrt            0      0.00%     65.19% # Number of instructions issued per FU type, per thread (Count)
system.cpu0.statIssuedInstType_0::SimdAdd         1596      0.00%     65.19% # Number of instructions issued per FU type, per thread (Count)
system.cpu0.statIssuedInstType_0::SimdAddAcc            0      0.00%     65.19% # Number of instructions issued per FU type, per thread (Count)
system.cpu0.statIssuedInstType_0::SimdAlu        30404      0.04%     65.23% # Number of instructions issued per FU type, per thread (Count)
system.cpu0.statIssuedInstType_0::SimdCmp           70      0.00%     65.23% # Number of instructions issued per FU type, per thread (Count)
system.cpu0.statIssuedInstType_0::SimdCvt         4617      0.01%     65.24% # Number of instructions issued per FU type, per thread (Count)
system.cpu0.statIssuedInstType_0::SimdMisc         3697      0.00%     65.24% # Number of instructions issued per FU type, per thread (Count)
system.cpu0.statIssuedInstType_0::SimdMult            0      0.00%     65.24% # Number of instructions issued per FU type, per thread (Count)
system.cpu0.statIssuedInstType_0::SimdMultAcc            0      0.00%     65.24% # Number of instructions issued per FU type, per thread (Count)
system.cpu0.statIssuedInstType_0::SimdShift         1292      0.00%     65.24% # Number of instructions issued per FU type, per thread (Count)
system.cpu0.statIssuedInstType_0::SimdShiftAcc            0      0.00%     65.24% # Number of instructions issued per FU type, per thread (Count)
system.cpu0.statIssuedInstType_0::SimdDiv            0      0.00%     65.24% # Number of instructions issued per FU type, per thread (Count)
system.cpu0.statIssuedInstType_0::SimdSqrt            0      0.00%     65.24% # Number of instructions issued per FU type, per thread (Count)
system.cpu0.statIssuedInstType_0::SimdFloatAdd      7758709     10.22%     75.46% # Number of instructions issued per FU type, per thread (Count)
system.cpu0.statIssuedInstType_0::SimdFloatAlu            0      0.00%     75.46% # Number of instructions issued per FU type, per thread (Count)
system.cpu0.statIssuedInstType_0::SimdFloatCmp           16      0.00%     75.46% # Number of instructions issued per FU type, per thread (Count)
system.cpu0.statIssuedInstType_0::SimdFloatCvt      3013109      3.97%     79.43% # Number of instructions issued per FU type, per thread (Count)
system.cpu0.statIssuedInstType_0::SimdFloatDiv           11      0.00%     79.43% # Number of instructions issued per FU type, per thread (Count)
system.cpu0.statIssuedInstType_0::SimdFloatMisc            0      0.00%     79.43% # Number of instructions issued per FU type, per thread (Count)
system.cpu0.statIssuedInstType_0::SimdFloatMult      1504390      1.98%     81.41% # Number of instructions issued per FU type, per thread (Count)
system.cpu0.statIssuedInstType_0::SimdFloatMultAcc            0      0.00%     81.41% # Number of instructions issued per FU type, per thread (Count)
system.cpu0.statIssuedInstType_0::SimdFloatSqrt            0      0.00%     81.41% # Number of instructions issued per FU type, per thread (Count)
system.cpu0.statIssuedInstType_0::SimdReduceAdd            0      0.00%     81.41% # Number of instructions issued per FU type, per thread (Count)
system.cpu0.statIssuedInstType_0::SimdReduceAlu            0      0.00%     81.41% # Number of instructions issued per FU type, per thread (Count)
system.cpu0.statIssuedInstType_0::SimdReduceCmp            0      0.00%     81.41% # Number of instructions issued per FU type, per thread (Count)
system.cpu0.statIssuedInstType_0::SimdFloatReduceAdd            0      0.00%     81.41% # Number of instructions issued per FU type, per thread (Count)
system.cpu0.statIssuedInstType_0::SimdFloatReduceCmp            0      0.00%     81.41% # Number of instructions issued per FU type, per thread (Count)
system.cpu0.statIssuedInstType_0::SimdAes            0      0.00%     81.41% # Number of instructions issued per FU type, per thread (Count)
system.cpu0.statIssuedInstType_0::SimdAesMix            0      0.00%     81.41% # Number of instructions issued per FU type, per thread (Count)
system.cpu0.statIssuedInstType_0::SimdSha1Hash            0      0.00%     81.41% # Number of instructions issued per FU type, per thread (Count)
system.cpu0.statIssuedInstType_0::SimdSha1Hash2            0      0.00%     81.41% # Number of instructions issued per FU type, per thread (Count)
system.cpu0.statIssuedInstType_0::SimdSha256Hash            0      0.00%     81.41% # Number of instructions issued per FU type, per thread (Count)
system.cpu0.statIssuedInstType_0::SimdSha256Hash2            0      0.00%     81.41% # Number of instructions issued per FU type, per thread (Count)
system.cpu0.statIssuedInstType_0::SimdShaSigma2            0      0.00%     81.41% # Number of instructions issued per FU type, per thread (Count)
system.cpu0.statIssuedInstType_0::SimdShaSigma3            0      0.00%     81.41% # Number of instructions issued per FU type, per thread (Count)
system.cpu0.statIssuedInstType_0::SimdPredAlu            0      0.00%     81.41% # Number of instructions issued per FU type, per thread (Count)
system.cpu0.statIssuedInstType_0::MemRead       197852      0.26%     81.67% # Number of instructions issued per FU type, per thread (Count)
system.cpu0.statIssuedInstType_0::MemWrite       313047      0.41%     82.08% # Number of instructions issued per FU type, per thread (Count)
system.cpu0.statIssuedInstType_0::FloatMemRead      9851273     12.97%     95.06% # Number of instructions issued per FU type, per thread (Count)
system.cpu0.statIssuedInstType_0::FloatMemWrite      3754910      4.94%    100.00% # Number of instructions issued per FU type, per thread (Count)
system.cpu0.statIssuedInstType_0::IprAccess            0      0.00%    100.00% # Number of instructions issued per FU type, per thread (Count)
system.cpu0.statIssuedInstType_0::InstPrefetch            0      0.00%    100.00% # Number of instructions issued per FU type, per thread (Count)
system.cpu0.statIssuedInstType_0::total      75934863                       # Number of instructions issued per FU type, per thread (Count)
system.cpu0.issueRate                        0.322983                       # Inst issue rate ((Count/Cycle))
system.cpu0.fuBusy                             777255                       # FU busy when requested (Count)
system.cpu0.fuBusyRate                       0.010236                       # FU busy rate (busy events/executed inst) ((Count/Count))
system.cpu0.intInstQueueReads               319299445                       # Number of integer instruction queue reads (Count)
system.cpu0.intInstQueueWrites               42889210                       # Number of integer instruction queue writes (Count)
system.cpu0.intInstQueueWakeupAccesses       42205893                       # Number of integer instruction queue wakeup accesses (Count)
system.cpu0.fpInstQueueReads                 68138344                       # Number of floating instruction queue reads (Count)
system.cpu0.fpInstQueueWrites                33722083                       # Number of floating instruction queue writes (Count)
system.cpu0.fpInstQueueWakeupAccesses        33615041                       # Number of floating instruction queue wakeup accesses (Count)
system.cpu0.vecInstQueueReads                       0                       # Number of vector instruction queue reads (Count)
system.cpu0.vecInstQueueWrites                      0                       # Number of vector instruction queue writes (Count)
system.cpu0.vecInstQueueWakeupAccesses              0                       # Number of vector instruction queue wakeup accesses (Count)
system.cpu0.intAluAccesses                   42238939                       # Number of integer alu accesses (Count)
system.cpu0.fpAluAccesses                    34447968                       # Number of floating point alu accesses (Count)
system.cpu0.vecAluAccesses                          0                       # Number of vector alu accesses (Count)
system.cpu0.numInsts                         75904642                       # Number of executed instructions (Count)
system.cpu0.numLoadInsts                     10036017                       # Number of load instructions executed (Count)
system.cpu0.numSquashedInsts                    30221                       # Number of squashed instructions skipped in execute (Count)
system.cpu0.numSwp                                  0                       # Number of swp insts executed (Count)
system.cpu0.numNop                                  0                       # Number of nop insts executed (Count)
system.cpu0.numRefs                          14103010                       # Number of memory reference insts executed (Count)
system.cpu0.numBranches                       7732507                       # Number of branches executed (Count)
system.cpu0.numStoreInsts                     4066993                       # Number of stores executed (Count)
system.cpu0.numRate                          0.322855                       # Inst execution rate ((Count/Cycle))
system.cpu0.timesIdled                           1806                       # Number of times that the entire CPU went into an idle state and unscheduled itself (Count)
system.cpu0.idleCycles                         317323                       # Total number of cycles that the CPU has spent unscheduled due to idling (Cycle)
system.cpu0.committedInsts                   40754503                       # Number of Instructions Simulated (Count)
system.cpu0.committedOps                     75381105                       # Number of Ops (including micro ops) Simulated (Count)
system.cpu0.cpi                              5.768798                       # CPI: Cycles Per Instruction ((Cycle/Count))
system.cpu0.totalCpi                         5.768798                       # CPI: Total CPI of All Threads ((Cycle/Count))
system.cpu0.ipc                              0.173346                       # IPC: Instructions Per Cycle ((Count/Cycle))
system.cpu0.totalIpc                         0.173346                       # IPC: Total IPC of All Threads ((Count/Cycle))
system.cpu0.intRegfileReads                  63289591                       # Number of integer regfile reads (Count)
system.cpu0.intRegfileWrites                 29431432                       # Number of integer regfile writes (Count)
system.cpu0.fpRegfileReads                   43672017                       # Number of floating regfile reads (Count)
system.cpu0.fpRegfileWrites                  26853517                       # Number of floating regfile writes (Count)
system.cpu0.ccRegfileReads                   44554265                       # number of cc regfile reads (Count)
system.cpu0.ccRegfileWrites                  24644192                       # number of cc regfile writes (Count)
system.cpu0.miscRegfileReads                 31586252                       # number of misc regfile reads (Count)
system.cpu0.miscRegfileWrites                     234                       # number of misc regfile writes (Count)
system.cpu0.MemDepUnit__0.insertedLoads       9994001                       # Number of loads inserted to the mem dependence unit. (Count)
system.cpu0.MemDepUnit__0.insertedStores      4072933                       # Number of stores inserted to the mem dependence unit. (Count)
system.cpu0.MemDepUnit__0.conflictingLoads       254412                       # Number of conflicting loads. (Count)
system.cpu0.MemDepUnit__0.conflictingStores       252858                       # Number of conflicting stores. (Count)
system.cpu0.MemDepUnit__1.insertedLoads             0                       # Number of loads inserted to the mem dependence unit. (Count)
system.cpu0.MemDepUnit__1.insertedStores            0                       # Number of stores inserted to the mem dependence unit. (Count)
system.cpu0.MemDepUnit__1.conflictingLoads            0                       # Number of conflicting loads. (Count)
system.cpu0.MemDepUnit__1.conflictingStores            0                       # Number of conflicting stores. (Count)
system.cpu0.MemDepUnit__2.insertedLoads             0                       # Number of loads inserted to the mem dependence unit. (Count)
system.cpu0.MemDepUnit__2.insertedStores            0                       # Number of stores inserted to the mem dependence unit. (Count)
system.cpu0.MemDepUnit__2.conflictingLoads            0                       # Number of conflicting loads. (Count)
system.cpu0.MemDepUnit__2.conflictingStores            0                       # Number of conflicting stores. (Count)
system.cpu0.MemDepUnit__3.insertedLoads             0                       # Number of loads inserted to the mem dependence unit. (Count)
system.cpu0.MemDepUnit__3.insertedStores            0                       # Number of stores inserted to the mem dependence unit. (Count)
system.cpu0.MemDepUnit__3.conflictingLoads            0                       # Number of conflicting loads. (Count)
system.cpu0.MemDepUnit__3.conflictingStores            0                       # Number of conflicting stores. (Count)
system.cpu0.branchPred.lookups                7784368                       # Number of BP lookups (Count)
system.cpu0.branchPred.condPredicted          7724423                       # Number of conditional branches predicted (Count)
system.cpu0.branchPred.condIncorrect             8906                       # Number of conditional branches incorrect (Count)
system.cpu0.branchPred.BTBLookups             4620241                       # Number of BTB lookups (Count)
system.cpu0.branchPred.BTBHits                4616552                       # Number of BTB hits (Count)
system.cpu0.branchPred.BTBHitRatio           0.999202                       # BTB Hit Ratio (Ratio)
system.cpu0.branchPred.RASUsed                  18381                       # Number of times the RAS was used to get a target. (Count)
system.cpu0.branchPred.RASIncorrect                23                       # Number of incorrect RAS predictions. (Count)
system.cpu0.branchPred.indirectLookups           9766                       # Number of indirect predictor lookups. (Count)
system.cpu0.branchPred.indirectHits              5423                       # Number of indirect target hits. (Count)
system.cpu0.branchPred.indirectMisses            4343                       # Number of indirect misses. (Count)
system.cpu0.branchPred.indirectMispredicted          856                       # Number of mispredicted indirect branches. (Count)
system.cpu0.commit.commitSquashedInsts         508231                       # The number of squashed insts skipped by commit (Count)
system.cpu0.commit.commitNonSpecStalls            786                       # The number of times commit has been forced to stall to communicate backwards (Count)
system.cpu0.commit.branchMispredicts             8469                       # The number of times a branch was mispredicted (Count)
system.cpu0.commit.numCommittedDist::samples    234714137                       # Number of insts commited each cycle (Count)
system.cpu0.commit.numCommittedDist::mean     0.321161                       # Number of insts commited each cycle (Count)
system.cpu0.commit.numCommittedDist::stdev     1.454428                       # Number of insts commited each cycle (Count)
system.cpu0.commit.numCommittedDist::underflows            0      0.00%      0.00% # Number of insts commited each cycle (Count)
system.cpu0.commit.numCommittedDist::0      219715686     93.61%     93.61% # Number of insts commited each cycle (Count)
system.cpu0.commit.numCommittedDist::1        3577572      1.52%     95.13% # Number of insts commited each cycle (Count)
system.cpu0.commit.numCommittedDist::2        1011904      0.43%     95.57% # Number of insts commited each cycle (Count)
system.cpu0.commit.numCommittedDist::3        2002111      0.85%     96.42% # Number of insts commited each cycle (Count)
system.cpu0.commit.numCommittedDist::4         721777      0.31%     96.73% # Number of insts commited each cycle (Count)
system.cpu0.commit.numCommittedDist::5          63086      0.03%     96.75% # Number of insts commited each cycle (Count)
system.cpu0.commit.numCommittedDist::6         106898      0.05%     96.80% # Number of insts commited each cycle (Count)
system.cpu0.commit.numCommittedDist::7         191358      0.08%     96.88% # Number of insts commited each cycle (Count)
system.cpu0.commit.numCommittedDist::8        7323745      3.12%    100.00% # Number of insts commited each cycle (Count)
system.cpu0.commit.numCommittedDist::overflows            0      0.00%    100.00% # Number of insts commited each cycle (Count)
system.cpu0.commit.numCommittedDist::min_value            0                       # Number of insts commited each cycle (Count)
system.cpu0.commit.numCommittedDist::max_value            8                       # Number of insts commited each cycle (Count)
system.cpu0.commit.numCommittedDist::total    234714137                       # Number of insts commited each cycle (Count)
system.cpu0.commit.instsCommitted            40754503                       # Number of instructions committed (Count)
system.cpu0.commit.opsCommitted              75381105                       # Number of ops (including micro ops) committed (Count)
system.cpu0.commit.memRefs                   13954475                       # Number of memory references committed (Count)
system.cpu0.commit.loads                      9906208                       # Number of loads committed (Count)
system.cpu0.commit.amos                             0                       # Number of atomic instructions committed (Count)
system.cpu0.commit.membars                        368                       # Number of memory barriers committed (Count)
system.cpu0.commit.branches                   7687128                       # Number of branches committed (Count)
system.cpu0.commit.vectorInstructions               0                       # Number of committed Vector instructions. (Count)
system.cpu0.commit.floating                  33561545                       # Number of committed floating point instructions. (Count)
system.cpu0.commit.integer                   55285003                       # Number of committed integer instructions. (Count)
system.cpu0.commit.functionCalls                 7557                       # Number of function calls committed. (Count)
system.cpu0.commit.committedInstType_0::No_OpClass        11515      0.02%      0.02% # Class of committed instruction (Count)
system.cpu0.commit.committedInstType_0::IntAlu     44376065     58.87%     58.88% # Class of committed instruction (Count)
system.cpu0.commit.committedInstType_0::IntMult          246      0.00%     58.88% # Class of committed instruction (Count)
system.cpu0.commit.committedInstType_0::IntDiv         2705      0.00%     58.89% # Class of committed instruction (Count)
system.cpu0.commit.committedInstType_0::FloatAdd      4753133      6.31%     65.19% # Class of committed instruction (Count)
system.cpu0.commit.committedInstType_0::FloatCmp            0      0.00%     65.19% # Class of committed instruction (Count)
system.cpu0.commit.committedInstType_0::FloatCvt          416      0.00%     65.19% # Class of committed instruction (Count)
system.cpu0.commit.committedInstType_0::FloatMult            0      0.00%     65.19% # Class of committed instruction (Count)
system.cpu0.commit.committedInstType_0::FloatMultAcc            0      0.00%     65.19% # Class of committed instruction (Count)
system.cpu0.commit.committedInstType_0::FloatDiv            0      0.00%     65.19% # Class of committed instruction (Count)
system.cpu0.commit.committedInstType_0::FloatMisc            0      0.00%     65.19% # Class of committed instruction (Count)
system.cpu0.commit.committedInstType_0::FloatSqrt            0      0.00%     65.19% # Class of committed instruction (Count)
system.cpu0.commit.committedInstType_0::SimdAdd         1098      0.00%     65.20% # Class of committed instruction (Count)
system.cpu0.commit.committedInstType_0::SimdAddAcc            0      0.00%     65.20% # Class of committed instruction (Count)
system.cpu0.commit.committedInstType_0::SimdAlu        11538      0.02%     65.21% # Class of committed instruction (Count)
system.cpu0.commit.committedInstType_0::SimdCmp           66      0.00%     65.21% # Class of committed instruction (Count)
system.cpu0.commit.committedInstType_0::SimdCvt         3104      0.00%     65.22% # Class of committed instruction (Count)
system.cpu0.commit.committedInstType_0::SimdMisc         3048      0.00%     65.22% # Class of committed instruction (Count)
system.cpu0.commit.committedInstType_0::SimdMult            0      0.00%     65.22% # Class of committed instruction (Count)
system.cpu0.commit.committedInstType_0::SimdMultAcc            0      0.00%     65.22% # Class of committed instruction (Count)
system.cpu0.commit.committedInstType_0::SimdShift          507      0.00%     65.22% # Class of committed instruction (Count)
system.cpu0.commit.committedInstType_0::SimdShiftAcc            0      0.00%     65.22% # Class of committed instruction (Count)
system.cpu0.commit.committedInstType_0::SimdDiv            0      0.00%     65.22% # Class of committed instruction (Count)
system.cpu0.commit.committedInstType_0::SimdSqrt            0      0.00%     65.22% # Class of committed instruction (Count)
system.cpu0.commit.committedInstType_0::SimdFloatAdd      7754366     10.29%     75.51% # Class of committed instruction (Count)
system.cpu0.commit.committedInstType_0::SimdFloatAlu            0      0.00%     75.51% # Class of committed instruction (Count)
system.cpu0.commit.committedInstType_0::SimdFloatCmp           16      0.00%     75.51% # Class of committed instruction (Count)
system.cpu0.commit.committedInstType_0::SimdFloatCvt      3006582      3.99%     79.50% # Class of committed instruction (Count)
system.cpu0.commit.committedInstType_0::SimdFloatDiv           11      0.00%     79.50% # Class of committed instruction (Count)
system.cpu0.commit.committedInstType_0::SimdFloatMisc            0      0.00%     79.50% # Class of committed instruction (Count)
system.cpu0.commit.committedInstType_0::SimdFloatMult      1502214      1.99%     81.49% # Class of committed instruction (Count)
system.cpu0.commit.committedInstType_0::SimdFloatMultAcc            0      0.00%     81.49% # Class of committed instruction (Count)
system.cpu0.commit.committedInstType_0::SimdFloatSqrt            0      0.00%     81.49% # Class of committed instruction (Count)
system.cpu0.commit.committedInstType_0::SimdReduceAdd            0      0.00%     81.49% # Class of committed instruction (Count)
system.cpu0.commit.committedInstType_0::SimdReduceAlu            0      0.00%     81.49% # Class of committed instruction (Count)
system.cpu0.commit.committedInstType_0::SimdReduceCmp            0      0.00%     81.49% # Class of committed instruction (Count)
system.cpu0.commit.committedInstType_0::SimdFloatReduceAdd            0      0.00%     81.49% # Class of committed instruction (Count)
system.cpu0.commit.committedInstType_0::SimdFloatReduceCmp            0      0.00%     81.49% # Class of committed instruction (Count)
system.cpu0.commit.committedInstType_0::SimdAes            0      0.00%     81.49% # Class of committed instruction (Count)
system.cpu0.commit.committedInstType_0::SimdAesMix            0      0.00%     81.49% # Class of committed instruction (Count)
system.cpu0.commit.committedInstType_0::SimdSha1Hash            0      0.00%     81.49% # Class of committed instruction (Count)
system.cpu0.commit.committedInstType_0::SimdSha1Hash2            0      0.00%     81.49% # Class of committed instruction (Count)
system.cpu0.commit.committedInstType_0::SimdSha256Hash            0      0.00%     81.49% # Class of committed instruction (Count)
system.cpu0.commit.committedInstType_0::SimdSha256Hash2            0      0.00%     81.49% # Class of committed instruction (Count)
system.cpu0.commit.committedInstType_0::SimdShaSigma2            0      0.00%     81.49% # Class of committed instruction (Count)
system.cpu0.commit.committedInstType_0::SimdShaSigma3            0      0.00%     81.49% # Class of committed instruction (Count)
system.cpu0.commit.committedInstType_0::SimdPredAlu            0      0.00%     81.49% # Class of committed instruction (Count)
system.cpu0.commit.committedInstType_0::MemRead       140147      0.19%     81.67% # Class of committed instruction (Count)
system.cpu0.commit.committedInstType_0::MemWrite       293954      0.39%     82.06% # Class of committed instruction (Count)
system.cpu0.commit.committedInstType_0::FloatMemRead      9766061     12.96%     95.02% # Class of committed instruction (Count)
system.cpu0.commit.committedInstType_0::FloatMemWrite      3754313      4.98%    100.00% # Class of committed instruction (Count)
system.cpu0.commit.committedInstType_0::IprAccess            0      0.00%    100.00% # Class of committed instruction (Count)
system.cpu0.commit.committedInstType_0::InstPrefetch            0      0.00%    100.00% # Class of committed instruction (Count)
system.cpu0.commit.committedInstType_0::total     75381105                       # Class of committed instruction (Count)
system.cpu0.commit.commitEligibleSamples      7323745                       # number cycles where commit BW limit reached (Cycle)
system.cpu0.dcache.demandHits::cpu0.data      7942987                       # number of demand (read+write) hits (Count)
system.cpu0.dcache.demandHits::total          7942987                       # number of demand (read+write) hits (Count)
system.cpu0.dcache.overallHits::cpu0.data      7942987                       # number of overall hits (Count)
system.cpu0.dcache.overallHits::total         7942987                       # number of overall hits (Count)
system.cpu0.dcache.demandMisses::cpu0.data      6060802                       # number of demand (read+write) misses (Count)
system.cpu0.dcache.demandMisses::total        6060802                       # number of demand (read+write) misses (Count)
system.cpu0.dcache.overallMisses::cpu0.data      6060802                       # number of overall misses (Count)
system.cpu0.dcache.overallMisses::total       6060802                       # number of overall misses (Count)
system.cpu0.dcache.demandMissLatency::cpu0.data 253584694995                       # number of demand (read+write) miss ticks (Tick)
system.cpu0.dcache.demandMissLatency::total 253584694995                       # number of demand (read+write) miss ticks (Tick)
system.cpu0.dcache.overallMissLatency::cpu0.data 253584694995                       # number of overall miss ticks (Tick)
system.cpu0.dcache.overallMissLatency::total 253584694995                       # number of overall miss ticks (Tick)
system.cpu0.dcache.demandAccesses::cpu0.data     14003789                       # number of demand (read+write) accesses (Count)
system.cpu0.dcache.demandAccesses::total     14003789                       # number of demand (read+write) accesses (Count)
system.cpu0.dcache.overallAccesses::cpu0.data     14003789                       # number of overall (read+write) accesses (Count)
system.cpu0.dcache.overallAccesses::total     14003789                       # number of overall (read+write) accesses (Count)
system.cpu0.dcache.demandMissRate::cpu0.data     0.432797                       # miss rate for demand accesses (Ratio)
system.cpu0.dcache.demandMissRate::total     0.432797                       # miss rate for demand accesses (Ratio)
system.cpu0.dcache.overallMissRate::cpu0.data     0.432797                       # miss rate for overall accesses (Ratio)
system.cpu0.dcache.overallMissRate::total     0.432797                       # miss rate for overall accesses (Ratio)
system.cpu0.dcache.demandAvgMissLatency::cpu0.data 41840.121983                       # average overall miss latency in ticks ((Tick/Count))
system.cpu0.dcache.demandAvgMissLatency::total 41840.121983                       # average overall miss latency in ticks ((Tick/Count))
system.cpu0.dcache.overallAvgMissLatency::cpu0.data 41840.121983                       # average overall miss latency ((Tick/Count))
system.cpu0.dcache.overallAvgMissLatency::total 41840.121983                       # average overall miss latency ((Tick/Count))
system.cpu0.dcache.blockedCycles::no_mshrs     14110171                       # number of cycles access was blocked (Cycle)
system.cpu0.dcache.blockedCycles::no_targets          384                       # number of cycles access was blocked (Cycle)
system.cpu0.dcache.blockedCauses::no_mshrs       217722                       # number of times access was blocked (Count)
system.cpu0.dcache.blockedCauses::no_targets            4                       # number of times access was blocked (Count)
system.cpu0.dcache.avgBlocked::no_mshrs     64.808200                       # average number of cycles each access was blocked ((Cycle/Count))
system.cpu0.dcache.avgBlocked::no_targets           96                       # average number of cycles each access was blocked ((Cycle/Count))
system.cpu0.dcache.writebacks::writebacks       502006                       # number of writebacks (Count)
system.cpu0.dcache.writebacks::total           502006                       # number of writebacks (Count)
system.cpu0.dcache.demandMshrHits::cpu0.data      4617725                       # number of demand (read+write) MSHR hits (Count)
system.cpu0.dcache.demandMshrHits::total      4617725                       # number of demand (read+write) MSHR hits (Count)
system.cpu0.dcache.overallMshrHits::cpu0.data      4617725                       # number of overall MSHR hits (Count)
system.cpu0.dcache.overallMshrHits::total      4617725                       # number of overall MSHR hits (Count)
system.cpu0.dcache.demandMshrMisses::cpu0.data      1443077                       # number of demand (read+write) MSHR misses (Count)
system.cpu0.dcache.demandMshrMisses::total      1443077                       # number of demand (read+write) MSHR misses (Count)
system.cpu0.dcache.overallMshrMisses::cpu0.data      1443077                       # number of overall MSHR misses (Count)
system.cpu0.dcache.overallMshrMisses::total      1443077                       # number of overall MSHR misses (Count)
system.cpu0.dcache.demandMshrMissLatency::cpu0.data 130476705245                       # number of demand (read+write) MSHR miss ticks (Tick)
system.cpu0.dcache.demandMshrMissLatency::total 130476705245                       # number of demand (read+write) MSHR miss ticks (Tick)
system.cpu0.dcache.overallMshrMissLatency::cpu0.data 130476705245                       # number of overall MSHR miss ticks (Tick)
system.cpu0.dcache.overallMshrMissLatency::total 130476705245                       # number of overall MSHR miss ticks (Tick)
system.cpu0.dcache.demandMshrMissRate::cpu0.data     0.103049                       # mshr miss ratio for demand accesses (Ratio)
system.cpu0.dcache.demandMshrMissRate::total     0.103049                       # mshr miss ratio for demand accesses (Ratio)
system.cpu0.dcache.overallMshrMissRate::cpu0.data     0.103049                       # mshr miss ratio for overall accesses (Ratio)
system.cpu0.dcache.overallMshrMissRate::total     0.103049                       # mshr miss ratio for overall accesses (Ratio)
system.cpu0.dcache.demandAvgMshrMissLatency::cpu0.data 90415.622482                       # average overall mshr miss latency ((Tick/Count))
system.cpu0.dcache.demandAvgMshrMissLatency::total 90415.622482                       # average overall mshr miss latency ((Tick/Count))
system.cpu0.dcache.overallAvgMshrMissLatency::cpu0.data 90415.622482                       # average overall mshr miss latency ((Tick/Count))
system.cpu0.dcache.overallAvgMshrMissLatency::total 90415.622482                       # average overall mshr miss latency ((Tick/Count))
system.cpu0.dcache.replacements               1441905                       # number of replacements (Count)
system.cpu0.dcache.LockedRMWReadReq.hits::cpu0.data          150                       # number of LockedRMWReadReq hits (Count)
system.cpu0.dcache.LockedRMWReadReq.hits::total          150                       # number of LockedRMWReadReq hits (Count)
system.cpu0.dcache.LockedRMWReadReq.misses::cpu0.data           34                       # number of LockedRMWReadReq misses (Count)
system.cpu0.dcache.LockedRMWReadReq.misses::total           34                       # number of LockedRMWReadReq misses (Count)
system.cpu0.dcache.LockedRMWReadReq.missLatency::cpu0.data       646500                       # number of LockedRMWReadReq miss ticks (Tick)
system.cpu0.dcache.LockedRMWReadReq.missLatency::total       646500                       # number of LockedRMWReadReq miss ticks (Tick)
system.cpu0.dcache.LockedRMWReadReq.accesses::cpu0.data          184                       # number of LockedRMWReadReq accesses(hits+misses) (Count)
system.cpu0.dcache.LockedRMWReadReq.accesses::total          184                       # number of LockedRMWReadReq accesses(hits+misses) (Count)
system.cpu0.dcache.LockedRMWReadReq.missRate::cpu0.data     0.184783                       # miss rate for LockedRMWReadReq accesses (Ratio)
system.cpu0.dcache.LockedRMWReadReq.missRate::total     0.184783                       # miss rate for LockedRMWReadReq accesses (Ratio)
system.cpu0.dcache.LockedRMWReadReq.avgMissLatency::cpu0.data 19014.705882                       # average LockedRMWReadReq miss latency ((Tick/Count))
system.cpu0.dcache.LockedRMWReadReq.avgMissLatency::total 19014.705882                       # average LockedRMWReadReq miss latency ((Tick/Count))
system.cpu0.dcache.LockedRMWReadReq.mshrMisses::cpu0.data           34                       # number of LockedRMWReadReq MSHR misses (Count)
system.cpu0.dcache.LockedRMWReadReq.mshrMisses::total           34                       # number of LockedRMWReadReq MSHR misses (Count)
system.cpu0.dcache.LockedRMWReadReq.mshrMissLatency::cpu0.data      1669250                       # number of LockedRMWReadReq MSHR miss ticks (Tick)
system.cpu0.dcache.LockedRMWReadReq.mshrMissLatency::total      1669250                       # number of LockedRMWReadReq MSHR miss ticks (Tick)
system.cpu0.dcache.LockedRMWReadReq.mshrMissRate::cpu0.data     0.184783                       # mshr miss rate for LockedRMWReadReq accesses (Ratio)
system.cpu0.dcache.LockedRMWReadReq.mshrMissRate::total     0.184783                       # mshr miss rate for LockedRMWReadReq accesses (Ratio)
system.cpu0.dcache.LockedRMWReadReq.avgMshrMissLatency::cpu0.data 49095.588235                       # average LockedRMWReadReq mshr miss latency ((Tick/Count))
system.cpu0.dcache.LockedRMWReadReq.avgMshrMissLatency::total 49095.588235                       # average LockedRMWReadReq mshr miss latency ((Tick/Count))
system.cpu0.dcache.LockedRMWWriteReq.hits::cpu0.data          184                       # number of LockedRMWWriteReq hits (Count)
system.cpu0.dcache.LockedRMWWriteReq.hits::total          184                       # number of LockedRMWWriteReq hits (Count)
system.cpu0.dcache.LockedRMWWriteReq.accesses::cpu0.data          184                       # number of LockedRMWWriteReq accesses(hits+misses) (Count)
system.cpu0.dcache.LockedRMWWriteReq.accesses::total          184                       # number of LockedRMWWriteReq accesses(hits+misses) (Count)
system.cpu0.dcache.ReadReq.hits::cpu0.data      4365092                       # number of ReadReq hits (Count)
system.cpu0.dcache.ReadReq.hits::total        4365092                       # number of ReadReq hits (Count)
system.cpu0.dcache.ReadReq.misses::cpu0.data      5590593                       # number of ReadReq misses (Count)
system.cpu0.dcache.ReadReq.misses::total      5590593                       # number of ReadReq misses (Count)
system.cpu0.dcache.ReadReq.missLatency::cpu0.data 208744089750                       # number of ReadReq miss ticks (Tick)
system.cpu0.dcache.ReadReq.missLatency::total 208744089750                       # number of ReadReq miss ticks (Tick)
system.cpu0.dcache.ReadReq.accesses::cpu0.data      9955685                       # number of ReadReq accesses(hits+misses) (Count)
system.cpu0.dcache.ReadReq.accesses::total      9955685                       # number of ReadReq accesses(hits+misses) (Count)
system.cpu0.dcache.ReadReq.missRate::cpu0.data     0.561548                       # miss rate for ReadReq accesses (Ratio)
system.cpu0.dcache.ReadReq.missRate::total     0.561548                       # miss rate for ReadReq accesses (Ratio)
system.cpu0.dcache.ReadReq.avgMissLatency::cpu0.data 37338.452245                       # average ReadReq miss latency ((Tick/Count))
system.cpu0.dcache.ReadReq.avgMissLatency::total 37338.452245                       # average ReadReq miss latency ((Tick/Count))
system.cpu0.dcache.ReadReq.mshrHits::cpu0.data      4617702                       # number of ReadReq MSHR hits (Count)
system.cpu0.dcache.ReadReq.mshrHits::total      4617702                       # number of ReadReq MSHR hits (Count)
system.cpu0.dcache.ReadReq.mshrMisses::cpu0.data       972891                       # number of ReadReq MSHR misses (Count)
system.cpu0.dcache.ReadReq.mshrMisses::total       972891                       # number of ReadReq MSHR misses (Count)
system.cpu0.dcache.ReadReq.mshrMissLatency::cpu0.data  85872506000                       # number of ReadReq MSHR miss ticks (Tick)
system.cpu0.dcache.ReadReq.mshrMissLatency::total  85872506000                       # number of ReadReq MSHR miss ticks (Tick)
system.cpu0.dcache.ReadReq.mshrMissRate::cpu0.data     0.097722                       # mshr miss rate for ReadReq accesses (Ratio)
system.cpu0.dcache.ReadReq.mshrMissRate::total     0.097722                       # mshr miss rate for ReadReq accesses (Ratio)
system.cpu0.dcache.ReadReq.avgMshrMissLatency::cpu0.data 88265.289740                       # average ReadReq mshr miss latency ((Tick/Count))
system.cpu0.dcache.ReadReq.avgMshrMissLatency::total 88265.289740                       # average ReadReq mshr miss latency ((Tick/Count))
system.cpu0.dcache.WriteReq.hits::cpu0.data      3577895                       # number of WriteReq hits (Count)
system.cpu0.dcache.WriteReq.hits::total       3577895                       # number of WriteReq hits (Count)
system.cpu0.dcache.WriteReq.misses::cpu0.data       470209                       # number of WriteReq misses (Count)
system.cpu0.dcache.WriteReq.misses::total       470209                       # number of WriteReq misses (Count)
system.cpu0.dcache.WriteReq.missLatency::cpu0.data  44840605245                       # number of WriteReq miss ticks (Tick)
system.cpu0.dcache.WriteReq.missLatency::total  44840605245                       # number of WriteReq miss ticks (Tick)
system.cpu0.dcache.WriteReq.accesses::cpu0.data      4048104                       # number of WriteReq accesses(hits+misses) (Count)
system.cpu0.dcache.WriteReq.accesses::total      4048104                       # number of WriteReq accesses(hits+misses) (Count)
system.cpu0.dcache.WriteReq.missRate::cpu0.data     0.116155                       # miss rate for WriteReq accesses (Ratio)
system.cpu0.dcache.WriteReq.missRate::total     0.116155                       # miss rate for WriteReq accesses (Ratio)
system.cpu0.dcache.WriteReq.avgMissLatency::cpu0.data 95363.136914                       # average WriteReq miss latency ((Tick/Count))
system.cpu0.dcache.WriteReq.avgMissLatency::total 95363.136914                       # average WriteReq miss latency ((Tick/Count))
system.cpu0.dcache.WriteReq.mshrHits::cpu0.data           23                       # number of WriteReq MSHR hits (Count)
system.cpu0.dcache.WriteReq.mshrHits::total           23                       # number of WriteReq MSHR hits (Count)
system.cpu0.dcache.WriteReq.mshrMisses::cpu0.data       470186                       # number of WriteReq MSHR misses (Count)
system.cpu0.dcache.WriteReq.mshrMisses::total       470186                       # number of WriteReq MSHR misses (Count)
system.cpu0.dcache.WriteReq.mshrMissLatency::cpu0.data  44604199245                       # number of WriteReq MSHR miss ticks (Tick)
system.cpu0.dcache.WriteReq.mshrMissLatency::total  44604199245                       # number of WriteReq MSHR miss ticks (Tick)
system.cpu0.dcache.WriteReq.mshrMissRate::cpu0.data     0.116150                       # mshr miss rate for WriteReq accesses (Ratio)
system.cpu0.dcache.WriteReq.mshrMissRate::total     0.116150                       # mshr miss rate for WriteReq accesses (Ratio)
system.cpu0.dcache.WriteReq.avgMshrMissLatency::cpu0.data 94865.009262                       # average WriteReq mshr miss latency ((Tick/Count))
system.cpu0.dcache.WriteReq.avgMshrMissLatency::total 94865.009262                       # average WriteReq mshr miss latency ((Tick/Count))
system.cpu0.dcache.power_state.pwrStateResidencyTicks::UNDEFINED  58776128250                       # Cumulative time (in ticks) in various power states (Tick)
system.cpu0.dcache.tags.tagsInUse         1023.162083                       # Average ticks per tags in use ((Tick/Count))
system.cpu0.dcache.tags.totalRefs             9386435                       # Total number of references to valid blocks. (Count)
system.cpu0.dcache.tags.sampledRefs           1443036                       # Sample count of references to valid blocks. (Count)
system.cpu0.dcache.tags.avgRefs              6.504644                       # Average number of references to valid blocks. ((Count/Count))
system.cpu0.dcache.tags.warmupTick             150250                       # The tick when the warmup percentage was hit. (Tick)
system.cpu0.dcache.tags.occupancies::cpu0.data  1023.162083                       # Average occupied blocks per tick, per requestor ((Count/Tick))
system.cpu0.dcache.tags.avgOccs::cpu0.data     0.999182                       # Average percentage of cache occupancy ((Ratio/Tick))
system.cpu0.dcache.tags.avgOccs::total       0.999182                       # Average percentage of cache occupancy ((Ratio/Tick))
system.cpu0.dcache.tags.occupanciesTaskId::1024         1024                       # Occupied blocks per task id (Count)
system.cpu0.dcache.tags.ageTaskId_1024::0          137                       # Occupied blocks per task id, per block age (Count)
system.cpu0.dcache.tags.ageTaskId_1024::1          886                       # Occupied blocks per task id, per block age (Count)
system.cpu0.dcache.tags.ageTaskId_1024::3            1                       # Occupied blocks per task id, per block age (Count)
system.cpu0.dcache.tags.ratioOccsTaskId::1024            1                       # Ratio of occupied blocks and all blocks, per task id (Ratio)
system.cpu0.dcache.tags.tagAccesses          29451350                       # Number of tag accesses (Count)
system.cpu0.dcache.tags.dataAccesses         29451350                       # Number of data accesses (Count)
system.cpu0.dcache.tags.power_state.pwrStateResidencyTicks::UNDEFINED  58776128250                       # Cumulative time (in ticks) in various power states (Tick)
system.cpu0.decode.idleCycles                 3615205                       # Number of cycles decode is idle (Cycle)
system.cpu0.decode.blockedCycles            220680293                       # Number of cycles decode is blocked (Cycle)
system.cpu0.decode.runCycles                  7507444                       # Number of cycles decode is running (Cycle)
system.cpu0.decode.unblockCycles              2973025                       # Number of cycles decode is unblocking (Cycle)
system.cpu0.decode.squashCycles                 11224                       # Number of cycles decode is squashing (Cycle)
system.cpu0.decode.branchResolved             4613724                       # Number of times decode resolved a branch (Count)
system.cpu0.decode.branchMispred                 1199                       # Number of times decode detected a branch misprediction (Count)
system.cpu0.decode.decodedInsts              76110847                       # Number of instructions handled by decode (Count)
system.cpu0.decode.squashedInsts                 5640                       # Number of squashed instructions handled by decode (Count)
system.cpu0.dtb_walker_cache.blockedCycles::no_mshrs            0                       # number of cycles access was blocked (Cycle)
system.cpu0.dtb_walker_cache.blockedCycles::no_targets            0                       # number of cycles access was blocked (Cycle)
system.cpu0.dtb_walker_cache.blockedCauses::no_mshrs            0                       # number of times access was blocked (Count)
system.cpu0.dtb_walker_cache.blockedCauses::no_targets            0                       # number of times access was blocked (Count)
system.cpu0.dtb_walker_cache.avgBlocked::no_mshrs          nan                       # average number of cycles each access was blocked ((Cycle/Count))
system.cpu0.dtb_walker_cache.avgBlocked::no_targets          nan                       # average number of cycles each access was blocked ((Cycle/Count))
system.cpu0.dtb_walker_cache.replacements            0                       # number of replacements (Count)
system.cpu0.dtb_walker_cache.power_state.pwrStateResidencyTicks::UNDEFINED  58776128250                       # Cumulative time (in ticks) in various power states (Tick)
system.cpu0.dtb_walker_cache.tags.tagsInUse            0                       # Average ticks per tags in use ((Tick/Count))
system.cpu0.dtb_walker_cache.tags.totalRefs            0                       # Total number of references to valid blocks. (Count)
system.cpu0.dtb_walker_cache.tags.sampledRefs            0                       # Sample count of references to valid blocks. (Count)
system.cpu0.dtb_walker_cache.tags.avgRefs          nan                       # Average number of references to valid blocks. ((Count/Count))
system.cpu0.dtb_walker_cache.tags.warmupTick            0                       # The tick when the warmup percentage was hit. (Tick)
system.cpu0.dtb_walker_cache.tags.tagAccesses            0                       # Number of tag accesses (Count)
system.cpu0.dtb_walker_cache.tags.dataAccesses            0                       # Number of data accesses (Count)
system.cpu0.dtb_walker_cache.tags.power_state.pwrStateResidencyTicks::UNDEFINED  58776128250                       # Cumulative time (in ticks) in various power states (Tick)
system.cpu0.fetch.icacheStallCycles           4761918                       # Number of cycles fetch is stalled on an Icache miss (Cycle)
system.cpu0.fetch.insts                      41189530                       # Number of instructions fetch has processed (Count)
system.cpu0.fetch.branches                    7784368                       # Number of branches that fetch encountered (Count)
system.cpu0.fetch.predictedBranches           4640356                       # Number of branches that fetch has predicted taken (Count)
system.cpu0.fetch.cycles                    230006599                       # Number of cycles fetch has run and was not squashing or blocked (Cycle)
system.cpu0.fetch.squashCycles                  24798                       # Number of cycles fetch has spent squashing (Cycle)
system.cpu0.fetch.miscStallCycles                 788                       # Number of cycles fetch has spent waiting on interrupts, or bad addresses, or out of MSHRs (Cycle)
system.cpu0.fetch.pendingTrapStallCycles         5407                       # Number of stall cycles due to pending traps (Cycle)
system.cpu0.fetch.icacheWaitRetryStallCycles           80                       # Number of stall cycles due to full MSHR (Cycle)
system.cpu0.fetch.cacheLines                  4622141                       # Number of cache lines fetched (Count)
system.cpu0.fetch.icacheSquashes                 3428                       # Number of outstanding Icache misses that were squashed (Count)
system.cpu0.fetch.nisnDist::samples         234787191                       # Number of instructions fetched each cycle (Total) (Count)
system.cpu0.fetch.nisnDist::mean             0.324644                       # Number of instructions fetched each cycle (Total) (Count)
system.cpu0.fetch.nisnDist::stdev            1.449690                       # Number of instructions fetched each cycle (Total) (Count)
system.cpu0.fetch.nisnDist::underflows              0      0.00%      0.00% # Number of instructions fetched each cycle (Total) (Count)
system.cpu0.fetch.nisnDist::0               220998155     94.13%     94.13% # Number of instructions fetched each cycle (Total) (Count)
system.cpu0.fetch.nisnDist::1                 1165858      0.50%     94.62% # Number of instructions fetched each cycle (Total) (Count)
system.cpu0.fetch.nisnDist::2                  901288      0.38%     95.01% # Number of instructions fetched each cycle (Total) (Count)
system.cpu0.fetch.nisnDist::3                 2370611      1.01%     96.02% # Number of instructions fetched each cycle (Total) (Count)
system.cpu0.fetch.nisnDist::4                 1866588      0.80%     96.81% # Number of instructions fetched each cycle (Total) (Count)
system.cpu0.fetch.nisnDist::5                  132753      0.06%     96.87% # Number of instructions fetched each cycle (Total) (Count)
system.cpu0.fetch.nisnDist::6                  207272      0.09%     96.96% # Number of instructions fetched each cycle (Total) (Count)
system.cpu0.fetch.nisnDist::7                  389151      0.17%     97.12% # Number of instructions fetched each cycle (Total) (Count)
system.cpu0.fetch.nisnDist::8                 6755515      2.88%    100.00% # Number of instructions fetched each cycle (Total) (Count)
system.cpu0.fetch.nisnDist::overflows               0      0.00%    100.00% # Number of instructions fetched each cycle (Total) (Count)
system.cpu0.fetch.nisnDist::min_value               0                       # Number of instructions fetched each cycle (Total) (Count)
system.cpu0.fetch.nisnDist::max_value               8                       # Number of instructions fetched each cycle (Total) (Count)
system.cpu0.fetch.nisnDist::total           234787191                       # Number of instructions fetched each cycle (Total) (Count)
system.cpu0.fetch.branchRate                 0.033110                       # Number of branch fetches per cycle (Ratio)
system.cpu0.fetch.rate                       0.175197                       # Number of inst fetches per cycle ((Count/Cycle))
system.cpu0.icache.demandHits::cpu0.inst      4618213                       # number of demand (read+write) hits (Count)
system.cpu0.icache.demandHits::total          4618213                       # number of demand (read+write) hits (Count)
system.cpu0.icache.overallHits::cpu0.inst      4618213                       # number of overall hits (Count)
system.cpu0.icache.overallHits::total         4618213                       # number of overall hits (Count)
system.cpu0.icache.demandMisses::cpu0.inst         3928                       # number of demand (read+write) misses (Count)
system.cpu0.icache.demandMisses::total           3928                       # number of demand (read+write) misses (Count)
system.cpu0.icache.overallMisses::cpu0.inst         3928                       # number of overall misses (Count)
system.cpu0.icache.overallMisses::total          3928                       # number of overall misses (Count)
system.cpu0.icache.demandMissLatency::cpu0.inst    202620499                       # number of demand (read+write) miss ticks (Tick)
system.cpu0.icache.demandMissLatency::total    202620499                       # number of demand (read+write) miss ticks (Tick)
system.cpu0.icache.overallMissLatency::cpu0.inst    202620499                       # number of overall miss ticks (Tick)
system.cpu0.icache.overallMissLatency::total    202620499                       # number of overall miss ticks (Tick)
system.cpu0.icache.demandAccesses::cpu0.inst      4622141                       # number of demand (read+write) accesses (Count)
system.cpu0.icache.demandAccesses::total      4622141                       # number of demand (read+write) accesses (Count)
system.cpu0.icache.overallAccesses::cpu0.inst      4622141                       # number of overall (read+write) accesses (Count)
system.cpu0.icache.overallAccesses::total      4622141                       # number of overall (read+write) accesses (Count)
system.cpu0.icache.demandMissRate::cpu0.inst     0.000850                       # miss rate for demand accesses (Ratio)
system.cpu0.icache.demandMissRate::total     0.000850                       # miss rate for demand accesses (Ratio)
system.cpu0.icache.overallMissRate::cpu0.inst     0.000850                       # miss rate for overall accesses (Ratio)
system.cpu0.icache.overallMissRate::total     0.000850                       # miss rate for overall accesses (Ratio)
system.cpu0.icache.demandAvgMissLatency::cpu0.inst 51583.630092                       # average overall miss latency in ticks ((Tick/Count))
system.cpu0.icache.demandAvgMissLatency::total 51583.630092                       # average overall miss latency in ticks ((Tick/Count))
system.cpu0.icache.overallAvgMissLatency::cpu0.inst 51583.630092                       # average overall miss latency ((Tick/Count))
system.cpu0.icache.overallAvgMissLatency::total 51583.630092                       # average overall miss latency ((Tick/Count))
system.cpu0.icache.blockedCycles::no_mshrs         1632                       # number of cycles access was blocked (Cycle)
system.cpu0.icache.blockedCycles::no_targets            0                       # number of cycles access was blocked (Cycle)
system.cpu0.icache.blockedCauses::no_mshrs           14                       # number of times access was blocked (Count)
system.cpu0.icache.blockedCauses::no_targets            0                       # number of times access was blocked (Count)
system.cpu0.icache.avgBlocked::no_mshrs    116.571429                       # average number of cycles each access was blocked ((Cycle/Count))
system.cpu0.icache.avgBlocked::no_targets          nan                       # average number of cycles each access was blocked ((Cycle/Count))
system.cpu0.icache.writebacks::writebacks         2619                       # number of writebacks (Count)
system.cpu0.icache.writebacks::total             2619                       # number of writebacks (Count)
system.cpu0.icache.demandMshrHits::cpu0.inst          783                       # number of demand (read+write) MSHR hits (Count)
system.cpu0.icache.demandMshrHits::total          783                       # number of demand (read+write) MSHR hits (Count)
system.cpu0.icache.overallMshrHits::cpu0.inst          783                       # number of overall MSHR hits (Count)
system.cpu0.icache.overallMshrHits::total          783                       # number of overall MSHR hits (Count)
system.cpu0.icache.demandMshrMisses::cpu0.inst         3145                       # number of demand (read+write) MSHR misses (Count)
system.cpu0.icache.demandMshrMisses::total         3145                       # number of demand (read+write) MSHR misses (Count)
system.cpu0.icache.overallMshrMisses::cpu0.inst         3145                       # number of overall MSHR misses (Count)
system.cpu0.icache.overallMshrMisses::total         3145                       # number of overall MSHR misses (Count)
system.cpu0.icache.demandMshrMissLatency::cpu0.inst    161159999                       # number of demand (read+write) MSHR miss ticks (Tick)
system.cpu0.icache.demandMshrMissLatency::total    161159999                       # number of demand (read+write) MSHR miss ticks (Tick)
system.cpu0.icache.overallMshrMissLatency::cpu0.inst    161159999                       # number of overall MSHR miss ticks (Tick)
system.cpu0.icache.overallMshrMissLatency::total    161159999                       # number of overall MSHR miss ticks (Tick)
system.cpu0.icache.demandMshrMissRate::cpu0.inst     0.000680                       # mshr miss ratio for demand accesses (Ratio)
system.cpu0.icache.demandMshrMissRate::total     0.000680                       # mshr miss ratio for demand accesses (Ratio)
system.cpu0.icache.overallMshrMissRate::cpu0.inst     0.000680                       # mshr miss ratio for overall accesses (Ratio)
system.cpu0.icache.overallMshrMissRate::total     0.000680                       # mshr miss ratio for overall accesses (Ratio)
system.cpu0.icache.demandAvgMshrMissLatency::cpu0.inst 51243.242925                       # average overall mshr miss latency ((Tick/Count))
system.cpu0.icache.demandAvgMshrMissLatency::total 51243.242925                       # average overall mshr miss latency ((Tick/Count))
system.cpu0.icache.overallAvgMshrMissLatency::cpu0.inst 51243.242925                       # average overall mshr miss latency ((Tick/Count))
system.cpu0.icache.overallAvgMshrMissLatency::total 51243.242925                       # average overall mshr miss latency ((Tick/Count))
system.cpu0.icache.replacements                  2619                       # number of replacements (Count)
system.cpu0.icache.ReadReq.hits::cpu0.inst      4618213                       # number of ReadReq hits (Count)
system.cpu0.icache.ReadReq.hits::total        4618213                       # number of ReadReq hits (Count)
system.cpu0.icache.ReadReq.misses::cpu0.inst         3928                       # number of ReadReq misses (Count)
system.cpu0.icache.ReadReq.misses::total         3928                       # number of ReadReq misses (Count)
system.cpu0.icache.ReadReq.missLatency::cpu0.inst    202620499                       # number of ReadReq miss ticks (Tick)
system.cpu0.icache.ReadReq.missLatency::total    202620499                       # number of ReadReq miss ticks (Tick)
system.cpu0.icache.ReadReq.accesses::cpu0.inst      4622141                       # number of ReadReq accesses(hits+misses) (Count)
system.cpu0.icache.ReadReq.accesses::total      4622141                       # number of ReadReq accesses(hits+misses) (Count)
system.cpu0.icache.ReadReq.missRate::cpu0.inst     0.000850                       # miss rate for ReadReq accesses (Ratio)
system.cpu0.icache.ReadReq.missRate::total     0.000850                       # miss rate for ReadReq accesses (Ratio)
system.cpu0.icache.ReadReq.avgMissLatency::cpu0.inst 51583.630092                       # average ReadReq miss latency ((Tick/Count))
system.cpu0.icache.ReadReq.avgMissLatency::total 51583.630092                       # average ReadReq miss latency ((Tick/Count))
system.cpu0.icache.ReadReq.mshrHits::cpu0.inst          783                       # number of ReadReq MSHR hits (Count)
system.cpu0.icache.ReadReq.mshrHits::total          783                       # number of ReadReq MSHR hits (Count)
system.cpu0.icache.ReadReq.mshrMisses::cpu0.inst         3145                       # number of ReadReq MSHR misses (Count)
system.cpu0.icache.ReadReq.mshrMisses::total         3145                       # number of ReadReq MSHR misses (Count)
system.cpu0.icache.ReadReq.mshrMissLatency::cpu0.inst    161159999                       # number of ReadReq MSHR miss ticks (Tick)
system.cpu0.icache.ReadReq.mshrMissLatency::total    161159999                       # number of ReadReq MSHR miss ticks (Tick)
system.cpu0.icache.ReadReq.mshrMissRate::cpu0.inst     0.000680                       # mshr miss rate for ReadReq accesses (Ratio)
system.cpu0.icache.ReadReq.mshrMissRate::total     0.000680                       # mshr miss rate for ReadReq accesses (Ratio)
system.cpu0.icache.ReadReq.avgMshrMissLatency::cpu0.inst 51243.242925                       # average ReadReq mshr miss latency ((Tick/Count))
system.cpu0.icache.ReadReq.avgMshrMissLatency::total 51243.242925                       # average ReadReq mshr miss latency ((Tick/Count))
system.cpu0.icache.power_state.pwrStateResidencyTicks::UNDEFINED  58776128250                       # Cumulative time (in ticks) in various power states (Tick)
system.cpu0.icache.tags.tagsInUse          509.542703                       # Average ticks per tags in use ((Tick/Count))
system.cpu0.icache.tags.totalRefs             4621357                       # Total number of references to valid blocks. (Count)
system.cpu0.icache.tags.sampledRefs              3144                       # Sample count of references to valid blocks. (Count)
system.cpu0.icache.tags.avgRefs           1469.897265                       # Average number of references to valid blocks. ((Count/Count))
system.cpu0.icache.tags.warmupTick              74250                       # The tick when the warmup percentage was hit. (Tick)
system.cpu0.icache.tags.occupancies::cpu0.inst   509.542703                       # Average occupied blocks per tick, per requestor ((Count/Tick))
system.cpu0.icache.tags.avgOccs::cpu0.inst     0.995201                       # Average percentage of cache occupancy ((Ratio/Tick))
system.cpu0.icache.tags.avgOccs::total       0.995201                       # Average percentage of cache occupancy ((Ratio/Tick))
system.cpu0.icache.tags.occupanciesTaskId::1024          510                       # Occupied blocks per task id (Count)
system.cpu0.icache.tags.ageTaskId_1024::0          144                       # Occupied blocks per task id, per block age (Count)
system.cpu0.icache.tags.ageTaskId_1024::1           64                       # Occupied blocks per task id, per block age (Count)
system.cpu0.icache.tags.ageTaskId_1024::3           85                       # Occupied blocks per task id, per block age (Count)
system.cpu0.icache.tags.ageTaskId_1024::4          217                       # Occupied blocks per task id, per block age (Count)
system.cpu0.icache.tags.ratioOccsTaskId::1024     0.996094                       # Ratio of occupied blocks and all blocks, per task id (Ratio)
system.cpu0.icache.tags.tagAccesses           9247426                       # Number of tag accesses (Count)
system.cpu0.icache.tags.dataAccesses          9247426                       # Number of data accesses (Count)
system.cpu0.icache.tags.power_state.pwrStateResidencyTicks::UNDEFINED  58776128250                       # Cumulative time (in ticks) in various power states (Tick)
system.cpu0.iew.idleCycles                          0                       # Number of cycles IEW is idle (Cycle)
system.cpu0.iew.squashCycles                    11224                       # Number of cycles IEW is squashing (Cycle)
system.cpu0.iew.blockCycles                  23628010                       # Number of cycles IEW is blocking (Cycle)
system.cpu0.iew.unblockCycles                10725712                       # Number of cycles IEW is unblocking (Cycle)
system.cpu0.iew.dispatchedInsts              75996070                       # Number of instructions dispatched to IQ (Count)
system.cpu0.iew.dispSquashedInsts                 849                       # Number of squashed instructions skipped by dispatch (Count)
system.cpu0.iew.dispLoadInsts                 9994001                       # Number of dispatched load instructions (Count)
system.cpu0.iew.dispStoreInsts                4072933                       # Number of dispatched store instructions (Count)
system.cpu0.iew.dispNonSpecInsts                  555                       # Number of dispatched non-speculative instructions (Count)
system.cpu0.iew.iqFullEvents                     1783                       # Number of times the IQ has become full, causing a stall (Count)
system.cpu0.iew.lsqFullEvents                10598454                       # Number of times the LSQ has become full, causing a stall (Count)
system.cpu0.iew.memOrderViolationEvents           272                       # Number of memory order violations (Count)
system.cpu0.iew.predictedTakenIncorrect          2834                       # Number of branches that were predicted taken incorrectly (Count)
system.cpu0.iew.predictedNotTakenIncorrect         7384                       # Number of branches that were predicted not taken incorrectly (Count)
system.cpu0.iew.branchMispredicts               10218                       # Number of branch mispredicts detected at execute (Count)
system.cpu0.iew.instsToCommit                75830050                       # Cumulative count of insts sent to commit (Count)
system.cpu0.iew.writebackCount               75820934                       # Cumulative count of insts written-back (Count)
system.cpu0.iew.producerInst                 55174743                       # Number of instructions producing a value (Count)
system.cpu0.iew.consumerInst                 90582687                       # Number of instructions consuming a value (Count)
system.cpu0.iew.wbRate                       0.322499                       # Insts written-back per cycle ((Count/Cycle))
system.cpu0.iew.wbFanout                     0.609109                       # Average fanout of values written-back ((Count/Count))
system.cpu0.interrupts.clk_domain.clock          4000                       # Clock period in ticks (Tick)
system.cpu0.itb_walker_cache.blockedCycles::no_mshrs            0                       # number of cycles access was blocked (Cycle)
system.cpu0.itb_walker_cache.blockedCycles::no_targets            0                       # number of cycles access was blocked (Cycle)
system.cpu0.itb_walker_cache.blockedCauses::no_mshrs            0                       # number of times access was blocked (Count)
system.cpu0.itb_walker_cache.blockedCauses::no_targets            0                       # number of times access was blocked (Count)
system.cpu0.itb_walker_cache.avgBlocked::no_mshrs          nan                       # average number of cycles each access was blocked ((Cycle/Count))
system.cpu0.itb_walker_cache.avgBlocked::no_targets          nan                       # average number of cycles each access was blocked ((Cycle/Count))
system.cpu0.itb_walker_cache.replacements            0                       # number of replacements (Count)
system.cpu0.itb_walker_cache.power_state.pwrStateResidencyTicks::UNDEFINED  58776128250                       # Cumulative time (in ticks) in various power states (Tick)
system.cpu0.itb_walker_cache.tags.tagsInUse            0                       # Average ticks per tags in use ((Tick/Count))
[...]
system.mem_ctrls.dram.bytesPerActivate::256-319       152899      5.28%     84.93% # Bytes accessed per row activation (Byte)
system.mem_ctrls.dram.bytesPerActivate::320-383        92374      3.19%     88.12% # Bytes accessed per row activation (Byte)
system.mem_ctrls.dram.bytesPerActivate::384-447        63594      2.20%     90.31% # Bytes accessed per row activation (Byte)
system.mem_ctrls.dram.bytesPerActivate::448-511        55770      1.93%     92.24% # Bytes accessed per row activation (Byte)
system.mem_ctrls.dram.bytesPerActivate::512-575       224596      7.76%    100.00% # Bytes accessed per row activation (Byte)
system.mem_ctrls.dram.bytesPerActivate::total      2894572                       # Bytes accessed per row activation (Byte)
system.mem_ctrls.dram.bytesRead             296423040                       # Total bytes read (Byte)
system.mem_ctrls.dram.bytesWritten          128080768                       # Total bytes written (Byte)
system.mem_ctrls.dram.avgRdBW             5043.255635                       # Average DRAM read bandwidth in MiBytes/s ((Byte/Second))
system.mem_ctrls.dram.avgWrBW             2179.129041                       # Average DRAM write bandwidth in MiBytes/s ((Byte/Second))
system.mem_ctrls.dram.peakBW                 32000.00                       # Theoretical peak bandwidth in MiByte/s ((Byte/Second))
system.mem_ctrls.dram.busUtil                   22.57                       # Data bus utilization in percentage (Ratio)
system.mem_ctrls.dram.busUtilRead               15.76                       # Data bus utilization in percentage for reads (Ratio)
system.mem_ctrls.dram.busUtilWrite               6.81                       # Data bus utilization in percentage for writes (Ratio)
system.mem_ctrls.dram.pageHitRate               56.36                       # Row buffer hit rate, read and write combined (Ratio)
system.mem_ctrls.dram.power_state.pwrStateResidencyTicks::UNDEFINED  58776128250                       # Cumulative time (in ticks) in various power states (Tick)
system.mem_ctrls.dram.rank0.actEnergy               0                       # Energy for activate commands per rank (pJ) (Joule)
system.mem_ctrls.dram.rank0.preEnergy               0                       # Energy for precharge commands per rank (pJ) (Joule)
system.mem_ctrls.dram.rank0.readEnergy              0                       # Energy for read commands per rank (pJ) (Joule)
system.mem_ctrls.dram.rank0.writeEnergy             0                       # Energy for write commands per rank (pJ) (Joule)
system.mem_ctrls.dram.rank0.refreshEnergy            0                       # Energy for refresh commands per rank (pJ) (Joule)
system.mem_ctrls.dram.rank0.actBackEnergy            0                       # Energy for active background per rank (pJ) (Joule)
system.mem_ctrls.dram.rank0.preBackEnergy            0                       # Energy for precharge background per rank (pJ) (Joule)
system.mem_ctrls.dram.rank0.actPowerDownEnergy            0                       # Energy for active power-down per rank (pJ) (Joule)
system.mem_ctrls.dram.rank0.prePowerDownEnergy            0                       # Energy for precharge power-down per rank (pJ) (Joule)
system.mem_ctrls.dram.rank0.selfRefreshEnergy            0                       # Energy for self refresh per rank (pJ) (Joule)
system.mem_ctrls.dram.rank0.totalEnergy             0                       # Total energy per rank (pJ) (Joule)
system.mem_ctrls.dram.rank0.averagePower            0                       # Core power per rank (mW) (Watt)
system.mem_ctrls.dram.rank0.totalIdleTime            0                       # Total Idle time Per DRAM Rank (Tick)
system.mem_ctrls.dram.rank0.pwrStateTime::IDLE     30899250                       # Time in different power states (Tick)
system.mem_ctrls.dram.rank0.pwrStateTime::REF    982605000                       # Time in different power states (Tick)
system.mem_ctrls.dram.rank0.pwrStateTime::SREF            0                       # Time in different power states (Tick)
system.mem_ctrls.dram.rank0.pwrStateTime::PRE_PDN            0                       # Time in different power states (Tick)
system.mem_ctrls.dram.rank0.pwrStateTime::ACT  57762624000                       # Time in different power states (Tick)
system.mem_ctrls.dram.rank0.pwrStateTime::ACT_PDN            0                       # Time in different power states (Tick)
system.mem_ctrls.power_state.pwrStateResidencyTicks::UNDEFINED  58776128250                       # Cumulative time (in ticks) in various power states (Tick)
system.membus.transDist::ReadResp             2755331                       # Transaction distribution (Count)
system.membus.transDist::WritebackDirty       2001289                       # Transaction distribution (Count)
system.membus.transDist::CleanEvict           2592297                       # Transaction distribution (Count)
system.membus.transDist::UpgradeReq                84                       # Transaction distribution (Count)
system.membus.transDist::ReadExReq            1876305                       # Transaction distribution (Count)
system.membus.transDist::ReadExResp           1876305                       # Transaction distribution (Count)
system.membus.transDist::ReadSharedReq        2755331                       # Transaction distribution (Count)
system.membus.pktCount_system.l2.mem_side_port::system.mem_ctrls.port     13856942                       # Packet count per connected requestor and responder (Count)
system.membus.pktCount_system.l2.mem_side_port::total     13856942                       # Packet count per connected requestor and responder (Count)
system.membus.pktCount::total                13856942                       # Packet count per connected requestor and responder (Count)
system.membus.pktSize_system.l2.mem_side_port::system.mem_ctrls.port    424507200                       # Cumulative packet size per connected requestor and responder (Byte)
system.membus.pktSize_system.l2.mem_side_port::total    424507200                       # Cumulative packet size per connected requestor and responder (Byte)
system.membus.pktSize::total                424507200                       # Cumulative packet size per connected requestor and responder (Byte)
system.membus.snoops                               83                       # Total snoops (Count)
system.membus.snoopTraffic                          0                       # Total snoop traffic (Byte)
system.membus.snoopFanout::samples            4631720                       # Request fanout histogram (Count)
system.membus.snoopFanout::mean                     0                       # Request fanout histogram (Count)
system.membus.snoopFanout::stdev                    0                       # Request fanout histogram (Count)
system.membus.snoopFanout::underflows               0      0.00%      0.00% # Request fanout histogram (Count)
system.membus.snoopFanout::0                  4631720    100.00%    100.00% # Request fanout histogram (Count)
system.membus.snoopFanout::1                        0      0.00%    100.00% # Request fanout histogram (Count)
system.membus.snoopFanout::overflows                0      0.00%    100.00% # Request fanout histogram (Count)
system.membus.snoopFanout::min_value                0                       # Request fanout histogram (Count)
system.membus.snoopFanout::max_value                0                       # Request fanout histogram (Count)
system.membus.snoopFanout::total              4631720                       # Request fanout histogram (Count)
system.membus.power_state.pwrStateResidencyTicks::UNDEFINED  58776128250                       # Cumulative time (in ticks) in various power states (Tick)
system.membus.reqLayer8.occupancy         17733702250                       # Layer occupancy (ticks) (Tick)
system.membus.reqLayer8.utilization               0.3                       # Layer utilization (Ratio)
system.membus.respLayer1.occupancy        23471613250                       # Layer occupancy (ticks) (Tick)
system.membus.respLayer1.utilization              0.4                       # Layer utilization (Ratio)
system.membus.snoop_filter.totRequests        9225306                       # Total number of requests made to the snoop filter. (Count)
system.membus.snoop_filter.hitSingleRequests      4596397                       # Number of requests hitting in the snoop filter with a single holder of the requested data. (Count)
system.membus.snoop_filter.hitMultiRequests            0                       # Number of requests hitting in the snoop filter with multiple (>1) holders of the requested data. (Count)
system.membus.snoop_filter.totSnoops                0                       # Total number of snoops made to the snoop filter. (Count)
system.membus.snoop_filter.hitSingleSnoops            0                       # Number of snoops hitting in the snoop filter with a single holder of the requested data. (Count)
system.membus.snoop_filter.hitMultiSnoops            0                       # Number of snoops hitting in the snoop filter with multiple (>1) holders of the requested data. (Count)
system.tol2bus.transDist::ReadResp            2758405                       # Transaction distribution (Count)
system.tol2bus.transDist::WritebackDirty      4003050                       # Transaction distribution (Count)
system.tol2bus.transDist::WritebackClean         2624                       # Transaction distribution (Count)
system.tol2bus.transDist::CleanEvict          5223278                       # Transaction distribution (Count)
system.tol2bus.transDist::UpgradeReq              156                       # Transaction distribution (Count)
system.tol2bus.transDist::UpgradeResp             156                       # Transaction distribution (Count)
system.tol2bus.transDist::ReadExReq           1876609                       # Transaction distribution (Count)
system.tol2bus.transDist::ReadExResp          1876609                       # Transaction distribution (Count)
system.tol2bus.transDist::ReadCleanReq           3404                       # Transaction distribution (Count)
system.tol2bus.transDist::ReadSharedReq       2755002                       # Transaction distribution (Count)
system.tol2bus.pktCount_system.cpu0.icache.mem_side_port::system.l2.cpu_side_port         8888                       # Packet count per connected requestor and responder (Count)
system.tol2bus.pktCount_system.cpu0.dcache.mem_side_port::system.l2.cpu_side_port      4327600                       # Packet count per connected requestor and responder (Count)
system.tol2bus.pktCount_system.cpu1.icache.mem_side_port::system.l2.cpu_side_port          247                       # Packet count per connected requestor and responder (Count)
system.tol2bus.pktCount_system.cpu1.dcache.mem_side_port::system.l2.cpu_side_port      3187472                       # Packet count per connected requestor and responder (Count)
system.tol2bus.pktCount_system.cpu2.icache.mem_side_port::system.l2.cpu_side_port          128                       # Packet count per connected requestor and responder (Count)
system.tol2bus.pktCount_system.cpu2.dcache.mem_side_port::system.l2.cpu_side_port      3187170                       # Packet count per connected requestor and responder (Count)
system.tol2bus.pktCount_system.cpu3.icache.mem_side_port::system.l2.cpu_side_port          138                       # Packet count per connected requestor and responder (Count)
system.tol2bus.pktCount_system.cpu3.dcache.mem_side_port::system.l2.cpu_side_port      3187248                       # Packet count per connected requestor and responder (Count)
system.tol2bus.pktCount::total               13898891                       # Packet count per connected requestor and responder (Count)
system.tol2bus.pktSize_system.cpu0.icache.mem_side_port::system.l2.cpu_side_port       367552                       # Cumulative packet size per connected requestor and responder (Byte)
system.tol2bus.pktSize_system.cpu0.dcache.mem_side_port::system.l2.cpu_side_port    124450432                       # Cumulative packet size per connected requestor and responder (Byte)
system.tol2bus.pktSize_system.cpu1.icache.mem_side_port::system.l2.cpu_side_port         7936                       # Cumulative packet size per connected requestor and responder (Byte)
system.tol2bus.pktSize_system.cpu1.dcache.mem_side_port::system.l2.cpu_side_port    100010368                       # Cumulative packet size per connected requestor and responder (Byte)
system.tol2bus.pktSize_system.cpu2.icache.mem_side_port::system.l2.cpu_side_port         3968                       # Cumulative packet size per connected requestor and responder (Byte)
system.tol2bus.pktSize_system.cpu2.dcache.mem_side_port::system.l2.cpu_side_port    100003520                       # Cumulative packet size per connected requestor and responder (Byte)
system.tol2bus.pktSize_system.cpu3.icache.mem_side_port::system.l2.cpu_side_port         4352                       # Cumulative packet size per connected requestor and responder (Byte)
system.tol2bus.pktSize_system.cpu3.dcache.mem_side_port::system.l2.cpu_side_port    100005888                       # Cumulative packet size per connected requestor and responder (Byte)
system.tol2bus.pktSize::total               424854016                       # Cumulative packet size per connected requestor and responder (Byte)
system.tol2bus.snoops                         4600402                       # Total snoops (Count)
system.tol2bus.snoopTraffic                 128150016                       # Total snoop traffic (Byte)
system.tol2bus.snoopFanout::samples           9234435                       # Request fanout histogram (Count)
system.tol2bus.snoopFanout::mean             0.001316                       # Request fanout histogram (Count)
system.tol2bus.snoopFanout::stdev            0.042761                       # Request fanout histogram (Count)
system.tol2bus.snoopFanout::underflows              0      0.00%      0.00% # Request fanout histogram (Count)
system.tol2bus.snoopFanout::0                 9223866     99.89%     99.89% # Request fanout histogram (Count)
system.tol2bus.snoopFanout::1                    9678      0.10%     99.99% # Request fanout histogram (Count)
system.tol2bus.snoopFanout::2                     288      0.00%     99.99% # Request fanout histogram (Count)
system.tol2bus.snoopFanout::3                     511      0.01%    100.00% # Request fanout histogram (Count)
system.tol2bus.snoopFanout::4                      92      0.00%    100.00% # Request fanout histogram (Count)
system.tol2bus.snoopFanout::5                       0      0.00%    100.00% # Request fanout histogram (Count)
system.tol2bus.snoopFanout::6                       0      0.00%    100.00% # Request fanout histogram (Count)
system.tol2bus.snoopFanout::7                       0      0.00%    100.00% # Request fanout histogram (Count)
system.tol2bus.snoopFanout::8                       0      0.00%    100.00% # Request fanout histogram (Count)
system.tol2bus.snoopFanout::9                       0      0.00%    100.00% # Request fanout histogram (Count)
system.tol2bus.snoopFanout::10                      0      0.00%    100.00% # Request fanout histogram (Count)
system.tol2bus.snoopFanout::11                      0      0.00%    100.00% # Request fanout histogram (Count)
system.tol2bus.snoopFanout::12                      0      0.00%    100.00% # Request fanout histogram (Count)
system.tol2bus.snoopFanout::13                      0      0.00%    100.00% # Request fanout histogram (Count)
system.tol2bus.snoopFanout::14                      0      0.00%    100.00% # Request fanout histogram (Count)
system.tol2bus.snoopFanout::15                      0      0.00%    100.00% # Request fanout histogram (Count)
system.tol2bus.snoopFanout::16                      0      0.00%    100.00% # Request fanout histogram (Count)
system.tol2bus.snoopFanout::overflows               0      0.00%    100.00% # Request fanout histogram (Count)
system.tol2bus.snoopFanout::min_value               0                       # Request fanout histogram (Count)
system.tol2bus.snoopFanout::max_value               4                       # Request fanout histogram (Count)
system.tol2bus.snoopFanout::total             9234435                       # Request fanout histogram (Count)
system.tol2bus.power_state.pwrStateResidencyTicks::UNDEFINED  58776128250                       # Cumulative time (in ticks) in various power states (Tick)
system.tol2bus.reqLayer0.occupancy         3318407250                       # Layer occupancy (ticks) (Tick)
system.tol2bus.reqLayer0.utilization              0.1                       # Layer utilization (Ratio)
system.tol2bus.respLayer0.occupancy           2359488                       # Layer occupancy (ticks) (Tick)
system.tol2bus.respLayer0.utilization             0.0                       # Layer utilization (Ratio)
system.tol2bus.respLayer1.occupancy        1082298240                       # Layer occupancy (ticks) (Tick)
system.tol2bus.respLayer1.utilization             0.0                       # Layer utilization (Ratio)
system.tol2bus.respLayer12.occupancy            55229                       # Layer occupancy (ticks) (Tick)
system.tol2bus.respLayer12.utilization            0.0                       # Layer utilization (Ratio)
system.tol2bus.respLayer13.occupancy        797141953                       # Layer occupancy (ticks) (Tick)
system.tol2bus.respLayer13.utilization            0.0                       # Layer utilization (Ratio)
system.tol2bus.respLayer4.occupancy             97716                       # Layer occupancy (ticks) (Tick)
system.tol2bus.respLayer4.utilization             0.0                       # Layer utilization (Ratio)
system.tol2bus.respLayer5.occupancy         797208205                       # Layer occupancy (ticks) (Tick)
system.tol2bus.respLayer5.utilization             0.0                       # Layer utilization (Ratio)
system.tol2bus.respLayer8.occupancy             54220                       # Layer occupancy (ticks) (Tick)
system.tol2bus.respLayer8.utilization             0.0                       # Layer utilization (Ratio)
system.tol2bus.respLayer9.occupancy         797129685                       # Layer occupancy (ticks) (Tick)
system.tol2bus.respLayer9.utilization             0.0                       # Layer utilization (Ratio)
system.tol2bus.snoop_filter.totRequests       9264859                       # Total number of requests made to the snoop filter. (Count)
system.tol2bus.snoop_filter.hitSingleRequests      4630454                       # Number of requests hitting in the snoop filter with a single holder of the requested data. (Count)
system.tol2bus.snoop_filter.hitMultiRequests         3995                       # Number of requests hitting in the snoop filter with multiple (>1) holders of the requested data. (Count)
system.tol2bus.snoop_filter.totSnoops            5877                       # Total number of snoops made to the snoop filter. (Count)
system.tol2bus.snoop_filter.hitSingleSnoops         5660                       # Number of snoops hitting in the snoop filter with a single holder of the requested data. (Count)
system.tol2bus.snoop_filter.hitMultiSnoops          217                       # Number of snoops hitting in the snoop filter with multiple (>1) holders of the requested data. (Count)
system.voltage_domain.voltage                       1                       # Voltage in Volts (Volt)
system.workload.inst.arm                            0                       # number of arm instructions executed (Count)
system.workload.inst.quiesce                        0                       # number of quiesce instructions executed (Count)

---------- End Simulation Statistics   ----------
