
---------- Begin Simulation Statistics ----------
simSeconds                                   0.130066                       # Number of seconds simulated (Second)
simTicks                                 130065701750                       # Number of ticks simulated (Tick)
finalTick                                130065701750                       # Number of ticks from beginning of simulation (restored from checkpoints and never reset) (Tick)
simFreq                                  1000000000000                       # The number of ticks per simulated second ((Tick/Second))
hostSeconds                                   1094.96                       # Real time elapsed on the host (Second)
hostTickRate                                118786192                       # The number of ticks simulated per host second (ticks/s) ((Tick/Second))
hostMemory                                    7751456                       # Number of bytes of host memory used (Byte)
simInsts                                     95639889                       # Number of instructions simulated (Count)
simOps                                      172869548                       # Number of ops (including micro ops) simulated (Count)
hostInstRate                                    87346                       # Simulator instruction rate (inst/s) ((Count/Second))
hostOpRate                                     157878                       # Simulator op (including micro ops) rate (op/s) ((Count/Second))
system.clk_domain.clock                          1000                       # Clock period in ticks (Tick)
system.cpu0.numCycles                       520262808                       # Number of cpu cycles simulated (Cycle)
system.cpu0.numWorkItemsStarted                     0                       # Number of work items this cpu started (Count)
system.cpu0.numWorkItemsCompleted                   0                       # Number of work items this cpu completed (Count)
system.cpu0.instsAdded                      197857250                       # Number of instructions added to the IQ (excludes non-spec) (Count)
system.cpu0.nonSpecInstsAdded                    1173                       # Number of non-speculative instructions added to the IQ (Count)
system.cpu0.instsIssued                     197977730                       # Number of instructions issued (Count)
system.cpu0.squashedInstsIssued                  2003                       # Number of squashed instructions issued (Count)
system.cpu0.squashedInstsExamined            96110335                       # Number of squashed instructions iterated over during squash; mainly for profiling (Count)
system.cpu0.squashedOperandsExamined           742353                       # Number of squashed operands that are examined and possibly removed from graph (Count)
system.cpu0.squashedNonSpecRemoved                431                       # Number of squashed non-spec instructions that were removed (Count)
system.cpu0.numIssuedDist::samples          519864661                       # Number of insts issued each cycle (Count)
system.cpu0.numIssuedDist::mean              0.380826                       # Number of insts issued each cycle (Count)
system.cpu0.numIssuedDist::stdev             1.341252                       # Number of insts issued each cycle (Count)
system.cpu0.numIssuedDist::underflows               0      0.00%      0.00% # Number of insts issued each cycle (Count)
system.cpu0.numIssuedDist::0                463521511     89.16%     89.16% # Number of insts issued each cycle (Count)
system.cpu0.numIssuedDist::1                 15297376      2.94%     92.10% # Number of insts issued each cycle (Count)
system.cpu0.numIssuedDist::2                 11281460      2.17%     94.27% # Number of insts issued each cycle (Count)
system.cpu0.numIssuedDist::3                  4848953      0.93%     95.21% # Number of insts issued each cycle (Count)
system.cpu0.numIssuedDist::4                  6497183      1.25%     96.46% # Number of insts issued each cycle (Count)
system.cpu0.numIssuedDist::5                  5277349      1.02%     97.47% # Number of insts issued each cycle (Count)
system.cpu0.numIssuedDist::6                  4308518      0.83%     98.30% # Number of insts issued each cycle (Count)
system.cpu0.numIssuedDist::7                  3314498      0.64%     98.94% # Number of insts issued each cycle (Count)
system.cpu0.numIssuedDist::8                  5517813      1.06%    100.00% # Number of insts issued each cycle (Count)
system.cpu0.numIssuedDist::overflows                0      0.00%    100.00% # Number of insts issued each cycle (Count)
system.cpu0.numIssuedDist::min_value                0                       # Number of insts issued each cycle (Count)
system.cpu0.numIssuedDist::max_value                8                       # Number of insts issued each cycle (Count)
system.cpu0.numIssuedDist::total            519864661                       # Number of insts issued each cycle (Count)
system.cpu0.statFuBusy::No_OpClass                  0      0.00%      0.00% # attempts to use FU when none available (Count)
system.cpu0.statFuBusy::IntAlu                 115537      0.77%      0.77% # attempts to use FU when none available (Count)
system.cpu0.statFuBusy::IntMult                     0      0.00%      0.77% # attempts to use FU when none available (Count)
system.cpu0.statFuBusy::IntDiv                      0      0.00%      0.77% # attempts to use FU when none available (Count)
system.cpu0.statFuBusy::FloatAdd                    0      0.00%      0.77% # attempts to use FU when none available (Count)
system.cpu0.statFuBusy::FloatCmp                    0      0.00%      0.77% # attempts to use FU when none available (Count)
system.cpu0.statFuBusy::FloatCvt                    7      0.00%      0.77% # attempts to use FU when none available (Count)
system.cpu0.statFuBusy::FloatMult                   0      0.00%      0.77% # attempts to use FU when none available (Count)
system.cpu0.statFuBusy::FloatMultAcc                0      0.00%      0.77% # attempts to use FU when none available (Count)
system.cpu0.statFuBusy::FloatDiv                    0      0.00%      0.77% # attempts to use FU when none available (Count)
system.cpu0.statFuBusy::FloatMisc                   0      0.00%      0.77% # attempts to use FU when none available (Count)
system.cpu0.statFuBusy::FloatSqrt                   0      0.00%      0.77% # attempts to use FU when none available (Count)
system.cpu0.statFuBusy::SimdAdd                     2      0.00%      0.77% # attempts to use FU when none available (Count)
system.cpu0.statFuBusy::SimdAddAcc                  0      0.00%      0.77% # attempts to use FU when none available (Count)
system.cpu0.statFuBusy::SimdAlu                   109      0.00%      0.77% # attempts to use FU when none available (Count)
system.cpu0.statFuBusy::SimdCmp                     0      0.00%      0.77% # attempts to use FU when none available (Count)
system.cpu0.statFuBusy::SimdCvt                    88      0.00%      0.77% # attempts to use FU when none available (Count)
system.cpu0.statFuBusy::SimdMisc                   50      0.00%      0.77% # attempts to use FU when none available (Count)
system.cpu0.statFuBusy::SimdMult                    0      0.00%      0.77% # attempts to use FU when none available (Count)
system.cpu0.statFuBusy::SimdMultAcc                 0      0.00%      0.77% # attempts to use FU when none available (Count)
system.cpu0.statFuBusy::SimdShift                  15      0.00%      0.77% # attempts to use FU when none available (Count)
system.cpu0.statFuBusy::SimdShiftAcc                0      0.00%      0.77% # attempts to use FU when none available (Count)
system.cpu0.statFuBusy::SimdDiv                     0      0.00%      0.77% # attempts to use FU when none available (Count)
system.cpu0.statFuBusy::SimdSqrt                    0      0.00%      0.77% # attempts to use FU when none available (Count)
system.cpu0.statFuBusy::SimdFloatAdd           874847      5.83%      6.61% # attempts to use FU when none available (Count)
system.cpu0.statFuBusy::SimdFloatAlu                0      0.00%      6.61% # attempts to use FU when none available (Count)
system.cpu0.statFuBusy::SimdFloatCmp                0      0.00%      6.61% # attempts to use FU when none available (Count)
system.cpu0.statFuBusy::SimdFloatCvt                0      0.00%      6.61% # attempts to use FU when none available (Count)
system.cpu0.statFuBusy::SimdFloatDiv                0      0.00%      6.61% # attempts to use FU when none available (Count)
system.cpu0.statFuBusy::SimdFloatMisc               0      0.00%      6.61% # attempts to use FU when none available (Count)
system.cpu0.statFuBusy::SimdFloatMult               0      0.00%      6.61% # attempts to use FU when none available (Count)
system.cpu0.statFuBusy::SimdFloatMultAcc            0      0.00%      6.61% # attempts to use FU when none available (Count)
system.cpu0.statFuBusy::SimdFloatSqrt               0      0.00%      6.61% # attempts to use FU when none available (Count)
system.cpu0.statFuBusy::SimdReduceAdd               0      0.00%      6.61% # attempts to use FU when none available (Count)
system.cpu0.statFuBusy::SimdReduceAlu               0      0.00%      6.61% # attempts to use FU when none available (Count)
system.cpu0.statFuBusy::SimdReduceCmp               0      0.00%      6.61% # attempts to use FU when none available (Count)
system.cpu0.statFuBusy::SimdFloatReduceAdd            0      0.00%      6.61% # attempts to use FU when none available (Count)
system.cpu0.statFuBusy::SimdFloatReduceCmp            0      0.00%      6.61% # attempts to use FU when none available (Count)
system.cpu0.statFuBusy::SimdAes                     0      0.00%      6.61% # attempts to use FU when none available (Count)
system.cpu0.statFuBusy::SimdAesMix                  0      0.00%      6.61% # attempts to use FU when none available (Count)
system.cpu0.statFuBusy::SimdSha1Hash                0      0.00%      6.61% # attempts to use FU when none available (Count)
system.cpu0.statFuBusy::SimdSha1Hash2               0      0.00%      6.61% # attempts to use FU when none available (Count)
system.cpu0.statFuBusy::SimdSha256Hash              0      0.00%      6.61% # attempts to use FU when none available (Count)
system.cpu0.statFuBusy::SimdSha256Hash2             0      0.00%      6.61% # attempts to use FU when none available (Count)
system.cpu0.statFuBusy::SimdShaSigma2               0      0.00%      6.61% # attempts to use FU when none available (Count)
system.cpu0.statFuBusy::SimdShaSigma3               0      0.00%      6.61% # attempts to use FU when none available (Count)
system.cpu0.statFuBusy::SimdPredAlu                 0      0.00%      6.61% # attempts to use FU when none available (Count)
system.cpu0.statFuBusy::MemRead               1501562     10.01%     16.62% # attempts to use FU when none available (Count)
system.cpu0.statFuBusy::MemWrite              3500849     23.35%     39.97% # attempts to use FU when none available (Count)
system.cpu0.statFuBusy::FloatMemRead          7750421     51.69%     91.66% # attempts to use FU when none available (Count)
system.cpu0.statFuBusy::FloatMemWrite         1250210      8.34%    100.00% # attempts to use FU when none available (Count)
system.cpu0.statFuBusy::IprAccess                   0      0.00%    100.00% # attempts to use FU when none available (Count)
system.cpu0.statFuBusy::InstPrefetch                0      0.00%    100.00% # attempts to use FU when none available (Count)
system.cpu0.statIssuedInstType_0::No_OpClass     11015167      5.56%      5.56% # Number of instructions issued per FU type, per thread (Count)
system.cpu0.statIssuedInstType_0::IntAlu     76359839     38.57%     44.13% # Number of instructions issued per FU type, per thread (Count)
system.cpu0.statIssuedInstType_0::IntMult          278      0.00%     44.13% # Number of instructions issued per FU type, per thread (Count)
system.cpu0.statIssuedInstType_0::IntDiv         3083      0.00%     44.14% # Number of instructions issued per FU type, per thread (Count)
system.cpu0.statIssuedInstType_0::FloatAdd      5505930      2.78%     46.92% # Number of instructions issued per FU type, per thread (Count)
system.cpu0.statIssuedInstType_0::FloatCmp            0      0.00%     46.92% # Number of instructions issued per FU type, per thread (Count)
system.cpu0.statIssuedInstType_0::FloatCvt          490      0.00%     46.92% # Number of instructions issued per FU type, per thread (Count)
system.cpu0.statIssuedInstType_0::FloatMult            0      0.00%     46.92% # Number of instructions issued per FU type, per thread (Count)
system.cpu0.statIssuedInstType_0::FloatMultAcc            0      0.00%     46.92% # Number of instructions issued per FU type, per thread (Count)
system.cpu0.statIssuedInstType_0::FloatDiv            0      0.00%     46.92% # Number of instructions issued per FU type, per thread (Count)
system.cpu0.statIssuedInstType_0::FloatMisc            0      0.00%     46.92% # Number of instructions issued per FU type, per thread (Count)
system.cpu0.statIssuedInstType_0::FloatSqrt            0      0.00%     46.92% # Number of instructions issued per FU type, per thread (Count)
system.cpu0.statIssuedInstType_0::SimdAdd         2681      0.00%     46.92% # Number of instructions issued per FU type, per thread (Count)
system.cpu0.statIssuedInstType_0::SimdAddAcc            0      0.00%     46.92% # Number of instructions issued per FU type, per thread (Count)
system.cpu0.statIssuedInstType_0::SimdAlu        33151      0.02%     46.93% # Number of instructions issued per FU type, per thread (Count)
system.cpu0.statIssuedInstType_0::SimdCmp           70      0.00%     46.93% # Number of instructions issued per FU type, per thread (Count)
system.cpu0.statIssuedInstType_0::SimdCvt         6177      0.00%     46.94% # Number of instructions issued per FU type, per thread (Count)
system.cpu0.statIssuedInstType_0::SimdMisc         4034      0.00%     46.94% # Number of instructions issued per FU type, per thread (Count)
system.cpu0.statIssuedInstType_0::SimdMult            0      0.00%     46.94% # Number of instructions issued per FU type, per thread (Count)
system.cpu0.statIssuedInstType_0::SimdMultAcc            0      0.00%     46.94% # Number of instructions issued per FU type, per thread (Count)
system.cpu0.statIssuedInstType_0::SimdShift         1511      0.00%     46.94% # Number of instructions issued per FU type, per thread (Count)
system.cpu0.statIssuedInstType_0::SimdShiftAcc            0      0.00%     46.94% # Number of instructions issued per FU type, per thread (Count)
system.cpu0.statIssuedInstType_0::SimdDiv            0      0.00%     46.94% # Number of instructions issued per FU type, per thread (Count)
system.cpu0.statIssuedInstType_0::SimdSqrt            0      0.00%     46.94% # Number of instructions issued per FU type, per thread (Count)
system.cpu0.statIssuedInstType_0::SimdFloatAdd     10509353      5.31%     52.25% # Number of instructions issued per FU type, per thread (Count)
system.cpu0.statIssuedInstType_0::SimdFloatAlu            0      0.00%     52.25% # Number of instructions issued per FU type, per thread (Count)
system.cpu0.statIssuedInstType_0::SimdFloatCmp           24      0.00%     52.25% # Number of instructions issued per FU type, per thread (Count)
system.cpu0.statIssuedInstType_0::SimdFloatCvt      3018357      1.52%     53.77% # Number of instructions issued per FU type, per thread (Count)
system.cpu0.statIssuedInstType_0::SimdFloatDiv           18      0.00%     53.77% # Number of instructions issued per FU type, per thread (Count)
system.cpu0.statIssuedInstType_0::SimdFloatMisc            0      0.00%     53.77% # Number of instructions issued per FU type, per thread (Count)
system.cpu0.statIssuedInstType_0::SimdFloatMult      4006755      2.02%     55.80% # Number of instructions issued per FU type, per thread (Count)
system.cpu0.statIssuedInstType_0::SimdFloatMultAcc            0      0.00%     55.80% # Number of instructions issued per FU type, per thread (Count)
system.cpu0.statIssuedInstType_0::SimdFloatSqrt            0      0.00%     55.80% # Number of instructions issued per FU type, per thread (Count)
system.cpu0.statIssuedInstType_0::SimdReduceAdd            0      0.00%     55.80% # Number of instructions issued per FU type, per thread (Count)
system.cpu0.statIssuedInstType_0::SimdReduceAlu            0      0.00%     55.80% # Number of instructions issued per FU type, per thread (Count)
system.cpu0.statIssuedInstType_0::SimdReduceCmp            0      0.00%     55.80% # Number of instructions issued per FU type, per thread (Count)
system.cpu0.statIssuedInstType_0::SimdFloatReduceAdd            0      0.00%     55.80% # Number of instructions issued per FU type, per thread (Count)
system.cpu0.statIssuedInstType_0::SimdFloatReduceCmp            0      0.00%     55.80% # Number of instructions issued per FU type, per thread (Count)
system.cpu0.statIssuedInstType_0::SimdAes            0      0.00%     55.80% # Number of instructions issued per FU type, per thread (Count)
system.cpu0.statIssuedInstType_0::SimdAesMix            0      0.00%     55.80% # Number of instructions issued per FU type, per thread (Count)
system.cpu0.statIssuedInstType_0::SimdSha1Hash            0      0.00%     55.80% # Number of instructions issued per FU type, per thread (Count)
system.cpu0.statIssuedInstType_0::SimdSha1Hash2            0      0.00%     55.80% # Number of instructions issued per FU type, per thread (Count)
system.cpu0.statIssuedInstType_0::SimdSha256Hash            0      0.00%     55.80% # Number of instructions issued per FU type, per thread (Count)
system.cpu0.statIssuedInstType_0::SimdSha256Hash2            0      0.00%     55.80% # Number of instructions issued per FU type, per thread (Count)
system.cpu0.statIssuedInstType_0::SimdShaSigma2            0      0.00%     55.80% # Number of instructions issued per FU type, per thread (Count)
system.cpu0.statIssuedInstType_0::SimdShaSigma3            0      0.00%     55.80% # Number of instructions issued per FU type, per thread (Count)
system.cpu0.statIssuedInstType_0::SimdPredAlu            0      0.00%     55.80% # Number of instructions issued per FU type, per thread (Count)
system.cpu0.statIssuedInstType_0::MemRead      5667793      2.86%     58.66% # Number of instructions issued per FU type, per thread (Count)
system.cpu0.statIssuedInstType_0::MemWrite     12557077      6.34%     65.00% # Number of instructions issued per FU type, per thread (Count)
system.cpu0.statIssuedInstType_0::FloatMemRead     38782108     19.59%     84.59% # Number of instructions issued per FU type, per thread (Count)
system.cpu0.statIssuedInstType_0::FloatMemWrite     30503834     15.41%    100.00% # Number of instructions issued per FU type, per thread (Count)
system.cpu0.statIssuedInstType_0::IprAccess            0      0.00%    100.00% # Number of instructions issued per FU type, per thread (Count)
system.cpu0.statIssuedInstType_0::InstPrefetch            0      0.00%    100.00% # Number of instructions issued per FU type, per thread (Count)
system.cpu0.statIssuedInstType_0::total     197977730                       # Number of instructions issued per FU type, per thread (Count)
system.cpu0.issueRate                        0.380534                       # Inst issue rate ((Count/Cycle))
system.cpu0.fuBusy                           14993697                       # FU busy when requested (Count)
system.cpu0.fuBusyRate                       0.075734                       # FU busy rate (busy events/executed inst) ((Count/Count))
system.cpu0.intInstQueueReads               720065793                       # Number of integer instruction queue reads (Count)
system.cpu0.intInstQueueWrites              152722484                       # Number of integer instruction queue writes (Count)
system.cpu0.intInstQueueWakeupAccesses       86547231                       # Number of integer instruction queue wakeup accesses (Count)
system.cpu0.fpInstQueueReads                210750028                       # Number of floating instruction queue reads (Count)
system.cpu0.fpInstQueueWrites               141246638                       # Number of floating instruction queue writes (Count)
system.cpu0.fpInstQueueWakeupAccesses       100137487                       # Number of floating instruction queue wakeup accesses (Count)
system.cpu0.vecInstQueueReads                       0                       # Number of vector instruction queue reads (Count)
system.cpu0.vecInstQueueWrites                      0                       # Number of vector instruction queue writes (Count)
system.cpu0.vecInstQueueWakeupAccesses              0                       # Number of vector instruction queue wakeup accesses (Count)
system.cpu0.intAluAccesses                   91593494                       # Number of integer alu accesses (Count)
system.cpu0.fpAluAccesses                   110362766                       # Number of floating point alu accesses (Count)
system.cpu0.vecAluAccesses                          0                       # Number of vector alu accesses (Count)
system.cpu0.numInsts                        197951228                       # Number of executed instructions (Count)
system.cpu0.numLoadInsts                     44443737                       # Number of load instructions executed (Count)
system.cpu0.numSquashedInsts                    26502                       # Number of squashed instructions skipped in execute (Count)
system.cpu0.numSwp                                  0                       # Number of swp insts executed (Count)
system.cpu0.numNop                                  0                       # Number of nop insts executed (Count)
system.cpu0.numRefs                          87503693                       # Number of memory reference insts executed (Count)
system.cpu0.numBranches                       9094322                       # Number of branches executed (Count)
system.cpu0.numStoreInsts                    43059956                       # Number of stores executed (Count)
system.cpu0.numRate                          0.380483                       # Inst execution rate ((Count/Cycle))
system.cpu0.timesIdled                           1739                       # Number of times that the entire CPU went into an idle state and unscheduled itself (Count)
system.cpu0.idleCycles                         398147                       # Total number of cycles that the CPU has spent unscheduled due to idling (Cycle)
system.cpu0.committedInsts                   56016225                       # Number of Instructions Simulated (Count)
system.cpu0.committedOps                    101748082                       # Number of Ops (including micro ops) Simulated (Count)
system.cpu0.cpi                              9.287716                       # CPI: Cycles Per Instruction ((Cycle/Count))
system.cpu0.totalCpi                         9.287716                       # CPI: Total CPI of All Threads ((Cycle/Count))
system.cpu0.ipc                              0.107669                       # IPC: Instructions Per Cycle ((Count/Cycle))
system.cpu0.totalIpc                         0.107669                       # IPC: Total IPC of All Threads ((Count/Cycle))
system.cpu0.intRegfileReads                 155786187                       # Number of integer regfile reads (Count)
system.cpu0.intRegfileWrites                 53353695                       # Number of integer regfile writes (Count)
system.cpu0.fpRegfileReads                   96204158                       # Number of floating regfile reads (Count)
system.cpu0.fpRegfileWrites                  66626023                       # Number of floating regfile writes (Count)
system.cpu0.ccRegfileReads                   51414245                       # number of cc regfile reads (Count)
system.cpu0.ccRegfileWrites                  47602122                       # number of cc regfile writes (Count)
system.cpu0.miscRegfileReads                105711442                       # number of misc regfile reads (Count)
system.cpu0.miscRegfileWrites                     234                       # number of misc regfile writes (Count)
system.cpu0.MemDepUnit__0.insertedLoads      44216051                       # Number of loads inserted to the mem dependence unit. (Count)
system.cpu0.MemDepUnit__0.insertedStores     43066460                       # Number of stores inserted to the mem dependence unit. (Count)
system.cpu0.MemDepUnit__0.conflictingLoads       504040                       # Number of conflicting loads. (Count)
system.cpu0.MemDepUnit__0.conflictingStores       503069                       # Number of conflicting stores. (Count)
system.cpu0.MemDepUnit__1.insertedLoads             0                       # Number of loads inserted to the mem dependence unit. (Count)
system.cpu0.MemDepUnit__1.insertedStores            0                       # Number of stores inserted to the mem dependence unit. (Count)
system.cpu0.MemDepUnit__1.conflictingLoads            0                       # Number of conflicting loads. (Count)
system.cpu0.MemDepUnit__1.conflictingStores            0                       # Number of conflicting stores. (Count)
system.cpu0.MemDepUnit__2.insertedLoads             0                       # Number of loads inserted to the mem dependence unit. (Count)
system.cpu0.MemDepUnit__2.insertedStores            0                       # Number of stores inserted to the mem dependence unit. (Count)
system.cpu0.MemDepUnit__2.conflictingLoads            0                       # Number of conflicting loads. (Count)
system.cpu0.MemDepUnit__2.conflictingStores            0                       # Number of conflicting stores. (Count)
system.cpu0.MemDepUnit__3.insertedLoads             0                       # Number of loads inserted to the mem dependence unit. (Count)
system.cpu0.MemDepUnit__3.insertedStores            0                       # Number of stores inserted to the mem dependence unit. (Count)
system.cpu0.MemDepUnit__3.conflictingLoads            0                       # Number of conflicting loads. (Count)
system.cpu0.MemDepUnit__3.conflictingStores            0                       # Number of conflicting stores. (Count)
system.cpu0.branchPred.lookups               10645640                       # Number of BP lookups (Count)
system.cpu0.branchPred.condPredicted         10594220                       # Number of conditional branches predicted (Count)
system.cpu0.branchPred.condIncorrect             8809                       # Number of conditional branches incorrect (Count)
system.cpu0.branchPred.BTBLookups             7529668                       # Number of BTB lookups (Count)
system.cpu0.branchPred.BTBHits                7525926                       # Number of BTB hits (Count)
system.cpu0.branchPred.BTBHitRatio           0.999503                       # BTB Hit Ratio (Ratio)
system.cpu0.branchPred.RASUsed                  19658                       # Number of times the RAS was used to get a target. (Count)
system.cpu0.branchPred.RASIncorrect                 6                       # Number of incorrect RAS predictions. (Count)
system.cpu0.branchPred.indirectLookups           9299                       # Number of indirect predictor lookups. (Count)
system.cpu0.branchPred.indirectHits              5723                       # Number of indirect target hits. (Count)
system.cpu0.branchPred.indirectMisses            3576                       # Number of indirect misses. (Count)
system.cpu0.branchPred.indirectMispredicted          796                       # Number of mispredicted indirect branches. (Count)
system.cpu0.commit.commitSquashedInsts       85005843                       # The number of squashed insts skipped by commit (Count)
system.cpu0.commit.commitNonSpecStalls            742                       # The number of times commit has been forced to stall to communicate backwards (Count)
system.cpu0.commit.branchMispredicts             8427                       # The number of times a branch was mispredicted (Count)
system.cpu0.commit.numCommittedDist::samples    508541314                       # Number of insts commited each cycle (Count)
system.cpu0.commit.numCommittedDist::mean     0.200078                       # Number of insts commited each cycle (Count)
system.cpu0.commit.numCommittedDist::stdev     1.070224                       # Number of insts commited each cycle (Count)
system.cpu0.commit.numCommittedDist::underflows            0      0.00%      0.00% # Number of insts commited each cycle (Count)
system.cpu0.commit.numCommittedDist::0      482389081     94.86%     94.86% # Number of insts commited each cycle (Count)
system.cpu0.commit.numCommittedDist::1        8291171      1.63%     96.49% # Number of insts commited each cycle (Count)
system.cpu0.commit.numCommittedDist::2        2833448      0.56%     97.04% # Number of insts commited each cycle (Count)
system.cpu0.commit.numCommittedDist::3        2780825      0.55%     97.59% # Number of insts commited each cycle (Count)
system.cpu0.commit.numCommittedDist::4        4115779      0.81%     98.40% # Number of insts commited each cycle (Count)
system.cpu0.commit.numCommittedDist::5         463545      0.09%     98.49% # Number of insts commited each cycle (Count)
system.cpu0.commit.numCommittedDist::6          57234      0.01%     98.50% # Number of insts commited each cycle (Count)
system.cpu0.commit.numCommittedDist::7         558553      0.11%     98.61% # Number of insts commited each cycle (Count)
system.cpu0.commit.numCommittedDist::8        7051678      1.39%    100.00% # Number of insts commited each cycle (Count)
system.cpu0.commit.numCommittedDist::overflows            0      0.00%    100.00% # Number of insts commited each cycle (Count)
system.cpu0.commit.numCommittedDist::min_value            0                       # Number of insts commited each cycle (Count)
system.cpu0.commit.numCommittedDist::max_value            8                       # Number of insts commited each cycle (Count)
system.cpu0.commit.numCommittedDist::total    508541314                       # Number of insts commited each cycle (Count)
system.cpu0.commit.instsCommitted            56016225                       # Number of instructions committed (Count)
system.cpu0.commit.opsCommitted             101748082                       # Number of ops (including micro ops) committed (Count)
system.cpu0.commit.memRefs                   30166465                       # Number of memory references committed (Count)
system.cpu0.commit.loads                     19122090                       # Number of loads committed (Count)
system.cpu0.commit.amos                             0                       # Number of atomic instructions committed (Count)
system.cpu0.commit.membars                        336                       # Number of memory barriers committed (Count)
system.cpu0.commit.branches                   6554517                       # Number of branches committed (Count)
system.cpu0.commit.vectorInstructions               0                       # Number of committed Vector instructions. (Count)
system.cpu0.commit.floating                  59069082                       # Number of committed floating point instructions. (Count)
system.cpu0.commit.integer                   70689793                       # Number of committed integer instructions. (Count)
system.cpu0.commit.functionCalls                 8089                       # Number of function calls committed. (Count)
system.cpu0.commit.committedInstType_0::No_OpClass         6840      0.01%      0.01% # Class of committed instruction (Count)
system.cpu0.commit.committedInstType_0::IntAlu     48530541     47.70%     47.70% # Class of committed instruction (Count)
system.cpu0.commit.committedInstType_0::IntMult          254      0.00%     47.70% # Class of committed instruction (Count)
system.cpu0.commit.committedInstType_0::IntDiv         2818      0.00%     47.71% # Class of committed instruction (Count)
system.cpu0.commit.committedInstType_0::FloatAdd      5502971      5.41%     53.11% # Class of committed instruction (Count)
system.cpu0.commit.committedInstType_0::FloatCmp            0      0.00%     53.11% # Class of committed instruction (Count)
system.cpu0.commit.committedInstType_0::FloatCvt          416      0.00%     53.12% # Class of committed instruction (Count)
system.cpu0.commit.committedInstType_0::FloatMult            0      0.00%     53.12% # Class of committed instruction (Count)
system.cpu0.commit.committedInstType_0::FloatMultAcc            0      0.00%     53.12% # Class of committed instruction (Count)
system.cpu0.commit.committedInstType_0::FloatDiv            0      0.00%     53.12% # Class of committed instruction (Count)
system.cpu0.commit.committedInstType_0::FloatMisc            0      0.00%     53.12% # Class of committed instruction (Count)
system.cpu0.commit.committedInstType_0::FloatSqrt            0      0.00%     53.12% # Class of committed instruction (Count)
system.cpu0.commit.committedInstType_0::SimdAdd         2098      0.00%     53.12% # Class of committed instruction (Count)
system.cpu0.commit.committedInstType_0::SimdAddAcc            0      0.00%     53.12% # Class of committed instruction (Count)
system.cpu0.commit.committedInstType_0::SimdAlu        12892      0.01%     53.13% # Class of committed instruction (Count)
system.cpu0.commit.committedInstType_0::SimdCmp           66      0.00%     53.13% # Class of committed instruction (Count)
system.cpu0.commit.committedInstType_0::SimdCvt         4504      0.00%     53.13% # Class of committed instruction (Count)
system.cpu0.commit.committedInstType_0::SimdMisc         3385      0.00%     53.14% # Class of committed instruction (Count)
system.cpu0.commit.committedInstType_0::SimdMult            0      0.00%     53.14% # Class of committed instruction (Count)
system.cpu0.commit.committedInstType_0::SimdMultAcc            0      0.00%     53.14% # Class of committed instruction (Count)
system.cpu0.commit.committedInstType_0::SimdShift          727      0.00%     53.14% # Class of committed instruction (Count)
system.cpu0.commit.committedInstType_0::SimdShiftAcc            0      0.00%     53.14% # Class of committed instruction (Count)
system.cpu0.commit.committedInstType_0::SimdDiv            0      0.00%     53.14% # Class of committed instruction (Count)
system.cpu0.commit.committedInstType_0::SimdSqrt            0      0.00%     53.14% # Class of committed instruction (Count)
system.cpu0.commit.committedInstType_0::SimdFloatAdd     10504674     10.32%     63.46% # Class of committed instruction (Count)
system.cpu0.commit.committedInstType_0::SimdFloatAlu            0      0.00%     63.46% # Class of committed instruction (Count)
system.cpu0.commit.committedInstType_0::SimdFloatCmp           24      0.00%     63.46% # Class of committed instruction (Count)
system.cpu0.commit.committedInstType_0::SimdFloatCvt      3007024      2.96%     66.42% # Class of committed instruction (Count)
system.cpu0.commit.committedInstType_0::SimdFloatDiv           15      0.00%     66.42% # Class of committed instruction (Count)
system.cpu0.commit.committedInstType_0::SimdFloatMisc            0      0.00%     66.42% # Class of committed instruction (Count)
system.cpu0.commit.committedInstType_0::SimdFloatMult      4002368      3.93%     70.35% # Class of committed instruction (Count)
system.cpu0.commit.committedInstType_0::SimdFloatMultAcc            0      0.00%     70.35% # Class of committed instruction (Count)
system.cpu0.commit.committedInstType_0::SimdFloatSqrt            0      0.00%     70.35% # Class of committed instruction (Count)
system.cpu0.commit.committedInstType_0::SimdReduceAdd            0      0.00%     70.35% # Class of committed instruction (Count)
system.cpu0.commit.committedInstType_0::SimdReduceAlu            0      0.00%     70.35% # Class of committed instruction (Count)
system.cpu0.commit.committedInstType_0::SimdReduceCmp            0      0.00%     70.35% # Class of committed instruction (Count)
system.cpu0.commit.committedInstType_0::SimdFloatReduceAdd            0      0.00%     70.35% # Class of committed instruction (Count)
system.cpu0.commit.committedInstType_0::SimdFloatReduceCmp            0      0.00%     70.35% # Class of committed instruction (Count)
system.cpu0.commit.committedInstType_0::SimdAes            0      0.00%     70.35% # Class of committed instruction (Count)
system.cpu0.commit.committedInstType_0::SimdAesMix            0      0.00%     70.35% # Class of committed instruction (Count)
system.cpu0.commit.committedInstType_0::SimdSha1Hash            0      0.00%     70.35% # Class of committed instruction (Count)
system.cpu0.commit.committedInstType_0::SimdSha1Hash2            0      0.00%     70.35% # Class of committed instruction (Count)
system.cpu0.commit.committedInstType_0::SimdSha256Hash            0      0.00%     70.35% # Class of committed instruction (Count)
system.cpu0.commit.committedInstType_0::SimdSha256Hash2            0      0.00%     70.35% # Class of committed instruction (Count)
system.cpu0.commit.committedInstType_0::SimdShaSigma2            0      0.00%     70.35% # Class of committed instruction (Count)
system.cpu0.commit.committedInstType_0::SimdShaSigma3            0      0.00%     70.35% # Class of committed instruction (Count)
system.cpu0.commit.committedInstType_0::SimdPredAlu            0      0.00%     70.35% # Class of committed instruction (Count)
system.cpu0.commit.committedInstType_0::MemRead       603741      0.59%     70.95% # Class of committed instruction (Count)
system.cpu0.commit.committedInstType_0::MemWrite      1540403      1.51%     72.46% # Class of committed instruction (Count)
system.cpu0.commit.committedInstType_0::FloatMemRead     18518349     18.20%     90.66% # Class of committed instruction (Count)
system.cpu0.commit.committedInstType_0::FloatMemWrite      9503972      9.34%    100.00% # Class of committed instruction (Count)
system.cpu0.commit.committedInstType_0::IprAccess            0      0.00%    100.00% # Class of committed instruction (Count)
system.cpu0.commit.committedInstType_0::InstPrefetch            0      0.00%    100.00% # Class of committed instruction (Count)
system.cpu0.commit.committedInstType_0::total    101748082                       # Class of committed instruction (Count)
system.cpu0.commit.commitEligibleSamples      7051678                       # number cycles where commit BW limit reached (Cycle)
system.cpu0.dcache.demandHits::cpu0.data     35472233                       # number of demand (read+write) hits (Count)
system.cpu0.dcache.demandHits::total         35472233                       # number of demand (read+write) hits (Count)
system.cpu0.dcache.overallHits::cpu0.data     40712289                       # number of overall hits (Count)
system.cpu0.dcache.overallHits::total        40712289                       # number of overall hits (Count)
system.cpu0.dcache.demandMisses::cpu0.data     13251556                       # number of demand (read+write) misses (Count)
system.cpu0.dcache.demandMisses::total       13251556                       # number of demand (read+write) misses (Count)
system.cpu0.dcache.overallMisses::cpu0.data     13511326                       # number of overall misses (Count)
system.cpu0.dcache.overallMisses::total      13511326                       # number of overall misses (Count)
system.cpu0.dcache.demandMissLatency::cpu0.data 415306022990                       # number of demand (read+write) miss ticks (Tick)
system.cpu0.dcache.demandMissLatency::total 415306022990                       # number of demand (read+write) miss ticks (Tick)
system.cpu0.dcache.overallMissLatency::cpu0.data 415306022990                       # number of overall miss ticks (Tick)
system.cpu0.dcache.overallMissLatency::total 415306022990                       # number of overall miss ticks (Tick)
system.cpu0.dcache.demandAccesses::cpu0.data     48723789                       # number of demand (read+write) accesses (Count)
system.cpu0.dcache.demandAccesses::total     48723789                       # number of demand (read+write) accesses (Count)
system.cpu0.dcache.overallAccesses::cpu0.data     54223615                       # number of overall (read+write) accesses (Count)
system.cpu0.dcache.overallAccesses::total     54223615                       # number of overall (read+write) accesses (Count)
system.cpu0.dcache.demandMissRate::cpu0.data     0.271973                       # miss rate for demand accesses (Ratio)
system.cpu0.dcache.demandMissRate::total     0.271973                       # miss rate for demand accesses (Ratio)
system.cpu0.dcache.overallMissRate::cpu0.data     0.249178                       # miss rate for overall accesses (Ratio)
system.cpu0.dcache.overallMissRate::total     0.249178                       # miss rate for overall accesses (Ratio)
system.cpu0.dcache.demandAvgMissLatency::cpu0.data 31340.170391                       # average overall miss latency in ticks ((Tick/Count))
system.cpu0.dcache.demandAvgMissLatency::total 31340.170391                       # average overall miss latency in ticks ((Tick/Count))
system.cpu0.dcache.overallAvgMissLatency::cpu0.data 30737.621384                       # average overall miss latency ((Tick/Count))
system.cpu0.dcache.overallAvgMissLatency::total 30737.621384                       # average overall miss latency ((Tick/Count))
system.cpu0.dcache.blockedCycles::no_mshrs     14842744                       # number of cycles access was blocked (Cycle)
system.cpu0.dcache.blockedCycles::no_targets         3001                       # number of cycles access was blocked (Cycle)
system.cpu0.dcache.blockedCauses::no_mshrs       769972                       # number of times access was blocked (Count)
system.cpu0.dcache.blockedCauses::no_targets           18                       # number of times access was blocked (Count)
system.cpu0.dcache.avgBlocked::no_mshrs     19.276992                       # average number of cycles each access was blocked ((Cycle/Count))
system.cpu0.dcache.avgBlocked::no_targets   166.722222                       # average number of cycles each access was blocked ((Cycle/Count))
system.cpu0.dcache.writebacks::writebacks      1252087                       # number of writebacks (Count)
system.cpu0.dcache.writebacks::total          1252087                       # number of writebacks (Count)
system.cpu0.dcache.demandMshrHits::cpu0.data     10370922                       # number of demand (read+write) MSHR hits (Count)
system.cpu0.dcache.demandMshrHits::total     10370922                       # number of demand (read+write) MSHR hits (Count)
system.cpu0.dcache.overallMshrHits::cpu0.data     10370922                       # number of overall MSHR hits (Count)
system.cpu0.dcache.overallMshrHits::total     10370922                       # number of overall MSHR hits (Count)
system.cpu0.dcache.demandMshrMisses::cpu0.data      2880634                       # number of demand (read+write) MSHR misses (Count)
system.cpu0.dcache.demandMshrMisses::total      2880634                       # number of demand (read+write) MSHR misses (Count)
system.cpu0.dcache.overallMshrMisses::cpu0.data      3130632                       # number of overall MSHR misses (Count)
system.cpu0.dcache.overallMshrMisses::total      3130632                       # number of overall MSHR misses (Count)
system.cpu0.dcache.demandMshrMissLatency::cpu0.data 246577983240                       # number of demand (read+write) MSHR miss ticks (Tick)
system.cpu0.dcache.demandMshrMissLatency::total 246577983240                       # number of demand (read+write) MSHR miss ticks (Tick)
system.cpu0.dcache.overallMshrMissLatency::cpu0.data 267722120240                       # number of overall MSHR miss ticks (Tick)
system.cpu0.dcache.overallMshrMissLatency::total 267722120240                       # number of overall MSHR miss ticks (Tick)
system.cpu0.dcache.demandMshrMissRate::cpu0.data     0.059122                       # mshr miss ratio for demand accesses (Ratio)
system.cpu0.dcache.demandMshrMissRate::total     0.059122                       # mshr miss ratio for demand accesses (Ratio)
system.cpu0.dcache.overallMshrMissRate::cpu0.data     0.057736                       # mshr miss ratio for overall accesses (Ratio)
system.cpu0.dcache.overallMshrMissRate::total     0.057736                       # mshr miss ratio for overall accesses (Ratio)
system.cpu0.dcache.demandAvgMshrMissLatency::cpu0.data 85598.511730                       # average overall mshr miss latency ((Tick/Count))
system.cpu0.dcache.demandAvgMshrMissLatency::total 85598.511730                       # average overall mshr miss latency ((Tick/Count))
system.cpu0.dcache.overallAvgMshrMissLatency::cpu0.data 85516.956397                       # average overall mshr miss latency ((Tick/Count))
system.cpu0.dcache.overallAvgMshrMissLatency::total 85516.956397                       # average overall mshr miss latency ((Tick/Count))
system.cpu0.dcache.replacements               3129523                       # number of replacements (Count)
system.cpu0.dcache.LockedRMWReadReq.hits::cpu0.data          126                       # number of LockedRMWReadReq hits (Count)
system.cpu0.dcache.LockedRMWReadReq.hits::total          126                       # number of LockedRMWReadReq hits (Count)
system.cpu0.dcache.LockedRMWReadReq.misses::cpu0.data           42                       # number of LockedRMWReadReq misses (Count)
system.cpu0.dcache.LockedRMWReadReq.misses::total           42                       # number of LockedRMWReadReq misses (Count)
system.cpu0.dcache.LockedRMWReadReq.missLatency::cpu0.data       671250                       # number of LockedRMWReadReq miss ticks (Tick)
system.cpu0.dcache.LockedRMWReadReq.missLatency::total       671250                       # number of LockedRMWReadReq miss ticks (Tick)
system.cpu0.dcache.LockedRMWReadReq.accesses::cpu0.data          168                       # number of LockedRMWReadReq accesses(hits+misses) (Count)
system.cpu0.dcache.LockedRMWReadReq.accesses::total          168                       # number of LockedRMWReadReq accesses(hits+misses) (Count)
system.cpu0.dcache.LockedRMWReadReq.missRate::cpu0.data     0.250000                       # miss rate for LockedRMWReadReq accesses (Ratio)
system.cpu0.dcache.LockedRMWReadReq.missRate::total     0.250000                       # miss rate for LockedRMWReadReq accesses (Ratio)
system.cpu0.dcache.LockedRMWReadReq.avgMissLatency::cpu0.data 15982.142857                       # average LockedRMWReadReq miss latency ((Tick/Count))
system.cpu0.dcache.LockedRMWReadReq.avgMissLatency::total 15982.142857                       # average LockedRMWReadReq miss latency ((Tick/Count))
system.cpu0.dcache.LockedRMWReadReq.mshrMisses::cpu0.data           42                       # number of LockedRMWReadReq MSHR misses (Count)
system.cpu0.dcache.LockedRMWReadReq.mshrMisses::total           42                       # number of LockedRMWReadReq MSHR misses (Count)
system.cpu0.dcache.LockedRMWReadReq.mshrMissLatency::cpu0.data      1678250                       # number of LockedRMWReadReq MSHR miss ticks (Tick)
system.cpu0.dcache.LockedRMWReadReq.mshrMissLatency::total      1678250                       # number of LockedRMWReadReq MSHR miss ticks (Tick)
system.cpu0.dcache.LockedRMWReadReq.mshrMissRate::cpu0.data     0.250000                       # mshr miss rate for LockedRMWReadReq accesses (Ratio)
system.cpu0.dcache.LockedRMWReadReq.mshrMissRate::total     0.250000                       # mshr miss rate for LockedRMWReadReq accesses (Ratio)
system.cpu0.dcache.LockedRMWReadReq.avgMshrMissLatency::cpu0.data 39958.333333                       # average LockedRMWReadReq mshr miss latency ((Tick/Count))
system.cpu0.dcache.LockedRMWReadReq.avgMshrMissLatency::total 39958.333333                       # average LockedRMWReadReq mshr miss latency ((Tick/Count))
system.cpu0.dcache.LockedRMWWriteReq.hits::cpu0.data          168                       # number of LockedRMWWriteReq hits (Count)
system.cpu0.dcache.LockedRMWWriteReq.hits::total          168                       # number of LockedRMWWriteReq hits (Count)
system.cpu0.dcache.LockedRMWWriteReq.accesses::cpu0.data          168                       # number of LockedRMWWriteReq accesses(hits+misses) (Count)
system.cpu0.dcache.LockedRMWWriteReq.accesses::total          168                       # number of LockedRMWWriteReq accesses(hits+misses) (Count)
system.cpu0.dcache.ReadReq.hits::cpu0.data     26616841                       # number of ReadReq hits (Count)
system.cpu0.dcache.ReadReq.hits::total       26616841                       # number of ReadReq hits (Count)
system.cpu0.dcache.ReadReq.misses::cpu0.data     12062704                       # number of ReadReq misses (Count)
system.cpu0.dcache.ReadReq.misses::total     12062704                       # number of ReadReq misses (Count)
system.cpu0.dcache.ReadReq.missLatency::cpu0.data 316888027000                       # number of ReadReq miss ticks (Tick)
system.cpu0.dcache.ReadReq.missLatency::total 316888027000                       # number of ReadReq miss ticks (Tick)
system.cpu0.dcache.ReadReq.accesses::cpu0.data     38679545                       # number of ReadReq accesses(hits+misses) (Count)
system.cpu0.dcache.ReadReq.accesses::total     38679545                       # number of ReadReq accesses(hits+misses) (Count)
system.cpu0.dcache.ReadReq.missRate::cpu0.data     0.311863                       # miss rate for ReadReq accesses (Ratio)
system.cpu0.dcache.ReadReq.missRate::total     0.311863                       # miss rate for ReadReq accesses (Ratio)
system.cpu0.dcache.ReadReq.avgMissLatency::cpu0.data 26270.065733                       # average ReadReq miss latency ((Tick/Count))
system.cpu0.dcache.ReadReq.avgMissLatency::total 26270.065733                       # average ReadReq miss latency ((Tick/Count))
system.cpu0.dcache.ReadReq.mshrHits::cpu0.data     10370913                       # number of ReadReq MSHR hits (Count)
system.cpu0.dcache.ReadReq.mshrHits::total     10370913                       # number of ReadReq MSHR hits (Count)
system.cpu0.dcache.ReadReq.mshrMisses::cpu0.data      1691791                       # number of ReadReq MSHR misses (Count)
system.cpu0.dcache.ReadReq.mshrMisses::total      1691791                       # number of ReadReq MSHR misses (Count)
system.cpu0.dcache.ReadReq.mshrMissLatency::cpu0.data 148754783750                       # number of ReadReq MSHR miss ticks (Tick)
system.cpu0.dcache.ReadReq.mshrMissLatency::total 148754783750                       # number of ReadReq MSHR miss ticks (Tick)
system.cpu0.dcache.ReadReq.mshrMissRate::cpu0.data     0.043739                       # mshr miss rate for ReadReq accesses (Ratio)
system.cpu0.dcache.ReadReq.mshrMissRate::total     0.043739                       # mshr miss rate for ReadReq accesses (Ratio)
system.cpu0.dcache.ReadReq.avgMshrMissLatency::cpu0.data 87927.399868                       # average ReadReq mshr miss latency ((Tick/Count))
system.cpu0.dcache.ReadReq.avgMshrMissLatency::total 87927.399868                       # average ReadReq mshr miss latency ((Tick/Count))
system.cpu0.dcache.SoftPFReq.hits::cpu0.data      5240056                       # number of SoftPFReq hits (Count)
system.cpu0.dcache.SoftPFReq.hits::total      5240056                       # number of SoftPFReq hits (Count)
system.cpu0.dcache.SoftPFReq.misses::cpu0.data       259770                       # number of SoftPFReq misses (Count)
system.cpu0.dcache.SoftPFReq.misses::total       259770                       # number of SoftPFReq misses (Count)
system.cpu0.dcache.SoftPFReq.accesses::cpu0.data      5499826                       # number of SoftPFReq accesses(hits+misses) (Count)
system.cpu0.dcache.SoftPFReq.accesses::total      5499826                       # number of SoftPFReq accesses(hits+misses) (Count)
system.cpu0.dcache.SoftPFReq.missRate::cpu0.data     0.047232                       # miss rate for SoftPFReq accesses (Ratio)
system.cpu0.dcache.SoftPFReq.missRate::total     0.047232                       # miss rate for SoftPFReq accesses (Ratio)
system.cpu0.dcache.SoftPFReq.mshrMisses::cpu0.data       249998                       # number of SoftPFReq MSHR misses (Count)
system.cpu0.dcache.SoftPFReq.mshrMisses::total       249998                       # number of SoftPFReq MSHR misses (Count)
system.cpu0.dcache.SoftPFReq.mshrMissLatency::cpu0.data  21144137000                       # number of SoftPFReq MSHR miss ticks (Tick)
system.cpu0.dcache.SoftPFReq.mshrMissLatency::total  21144137000                       # number of SoftPFReq MSHR miss ticks (Tick)
system.cpu0.dcache.SoftPFReq.mshrMissRate::cpu0.data     0.045456                       # mshr miss rate for SoftPFReq accesses (Ratio)
system.cpu0.dcache.SoftPFReq.mshrMissRate::total     0.045456                       # mshr miss rate for SoftPFReq accesses (Ratio)
system.cpu0.dcache.SoftPFReq.avgMshrMissLatency::cpu0.data 84577.224618                       # average SoftPFReq mshr miss latency ((Tick/Count))
system.cpu0.dcache.SoftPFReq.avgMshrMissLatency::total 84577.224618                       # average SoftPFReq mshr miss latency ((Tick/Count))
system.cpu0.dcache.WriteReq.hits::cpu0.data      8855392                       # number of WriteReq hits (Count)
system.cpu0.dcache.WriteReq.hits::total       8855392                       # number of WriteReq hits (Count)
system.cpu0.dcache.WriteReq.misses::cpu0.data      1188852                       # number of WriteReq misses (Count)
system.cpu0.dcache.WriteReq.misses::total      1188852                       # number of WriteReq misses (Count)
system.cpu0.dcache.WriteReq.missLatency::cpu0.data  98417995990                       # number of WriteReq miss ticks (Tick)
system.cpu0.dcache.WriteReq.missLatency::total  98417995990                       # number of WriteReq miss ticks (Tick)
system.cpu0.dcache.WriteReq.accesses::cpu0.data     10044244                       # number of WriteReq accesses(hits+misses) (Count)
system.cpu0.dcache.WriteReq.accesses::total     10044244                       # number of WriteReq accesses(hits+misses) (Count)
system.cpu0.dcache.WriteReq.missRate::cpu0.data     0.118362                       # miss rate for WriteReq accesses (Ratio)
system.cpu0.dcache.WriteReq.missRate::total     0.118362                       # miss rate for WriteReq accesses (Ratio)
system.cpu0.dcache.WriteReq.avgMissLatency::cpu0.data 82784.060581                       # average WriteReq miss latency ((Tick/Count))
system.cpu0.dcache.WriteReq.avgMissLatency::total 82784.060581                       # average WriteReq miss latency ((Tick/Count))
system.cpu0.dcache.WriteReq.mshrHits::cpu0.data            9                       # number of WriteReq MSHR hits (Count)
system.cpu0.dcache.WriteReq.mshrHits::total            9                       # number of WriteReq MSHR hits (Count)
system.cpu0.dcache.WriteReq.mshrMisses::cpu0.data      1188843                       # number of WriteReq MSHR misses (Count)
system.cpu0.dcache.WriteReq.mshrMisses::total      1188843                       # number of WriteReq MSHR misses (Count)
system.cpu0.dcache.WriteReq.mshrMissLatency::cpu0.data  97823199490                       # number of WriteReq MSHR miss ticks (Tick)
system.cpu0.dcache.WriteReq.mshrMissLatency::total  97823199490                       # number of WriteReq MSHR miss ticks (Tick)
system.cpu0.dcache.WriteReq.mshrMissRate::cpu0.data     0.118361                       # mshr miss rate for WriteReq accesses (Ratio)
system.cpu0.dcache.WriteReq.mshrMissRate::total     0.118361                       # mshr miss rate for WriteReq accesses (Ratio)
system.cpu0.dcache.WriteReq.avgMshrMissLatency::cpu0.data 82284.371856                       # average WriteReq mshr miss latency ((Tick/Count))
system.cpu0.dcache.WriteReq.avgMshrMissLatency::total 82284.371856                       # average WriteReq mshr miss latency ((Tick/Count))
system.cpu0.dcache.power_state.pwrStateResidencyTicks::UNDEFINED 130065701750                       # Cumulative time (in ticks) in various power states (Tick)
system.cpu0.dcache.tags.tagsInUse         1023.538180                       # Average ticks per tags in use ((Tick/Count))
system.cpu0.dcache.tags.totalRefs            43843260                       # Total number of references to valid blocks. (Count)
system.cpu0.dcache.tags.sampledRefs           3130604                       # Sample count of references to valid blocks. (Count)
system.cpu0.dcache.tags.avgRefs             14.004729                       # Average number of references to valid blocks. ((Count/Count))
system.cpu0.dcache.tags.warmupTick             168250                       # The tick when the warmup percentage was hit. (Tick)
system.cpu0.dcache.tags.occupancies::cpu0.data  1023.538180                       # Average occupied blocks per tick, per requestor ((Count/Tick))
system.cpu0.dcache.tags.avgOccs::cpu0.data     0.999549                       # Average percentage of cache occupancy ((Ratio/Tick))
system.cpu0.dcache.tags.avgOccs::total       0.999549                       # Average percentage of cache occupancy ((Ratio/Tick))
system.cpu0.dcache.tags.occupanciesTaskId::1024         1024                       # Occupied blocks per task id (Count)
system.cpu0.dcache.tags.ageTaskId_1024::0          133                       # Occupied blocks per task id, per block age (Count)
system.cpu0.dcache.tags.ageTaskId_1024::1          890                       # Occupied blocks per task id, per block age (Count)
system.cpu0.dcache.tags.ageTaskId_1024::4            1                       # Occupied blocks per task id, per block age (Count)
system.cpu0.dcache.tags.ratioOccsTaskId::1024            1                       # Ratio of occupied blocks and all blocks, per task id (Ratio)
system.cpu0.dcache.tags.tagAccesses         111578506                       # Number of tag accesses (Count)
system.cpu0.dcache.tags.dataAccesses        111578506                       # Number of data accesses (Count)
system.cpu0.dcache.tags.power_state.pwrStateResidencyTicks::UNDEFINED 130065701750                       # Cumulative time (in ticks) in various power states (Tick)
system.cpu0.decode.idleCycles                 6325682                       # Number of cycles decode is idle (Cycle)
system.cpu0.decode.blockedCycles            485202067                       # Number of cycles decode is blocked (Cycle)
system.cpu0.decode.runCycles                 20964306                       # Number of cycles decode is running (Cycle)
system.cpu0.decode.unblockCycles              6361230                       # Number of cycles decode is unblocking (Cycle)
system.cpu0.decode.squashCycles               1011376                       # Number of cycles decode is squashing (Cycle)
system.cpu0.decode.branchResolved             6522745                       # Number of times decode resolved a branch (Count)
system.cpu0.decode.branchMispred                 1350                       # Number of times decode detected a branch misprediction (Count)
system.cpu0.decode.decodedInsts             208466063                       # Number of instructions handled by decode (Count)
system.cpu0.decode.squashedInsts                 6479                       # Number of squashed instructions handled by decode (Count)
system.cpu0.dtb_walker_cache.blockedCycles::no_mshrs            0                       # number of cycles access was blocked (Cycle)
system.cpu0.dtb_walker_cache.blockedCycles::no_targets            0                       # number of cycles access was blocked (Cycle)
system.cpu0.dtb_walker_cache.blockedCauses::no_mshrs            0                       # number of times access was blocked (Count)
system.cpu0.dtb_walker_cache.blockedCauses::no_targets            0                       # number of times access was blocked (Count)
system.cpu0.dtb_walker_cache.avgBlocked::no_mshrs          nan                       # average number of cycles each access was blocked ((Cycle/Count))
system.cpu0.dtb_walker_cache.avgBlocked::no_targets          nan                       # average number of cycles each access was blocked ((Cycle/Count))
system.cpu0.dtb_walker_cache.replacements            0                       # number of replacements (Count)
system.cpu0.dtb_walker_cache.power_state.pwrStateResidencyTicks::UNDEFINED 130065701750                       # Cumulative time (in ticks) in various power states (Tick)
system.cpu0.dtb_walker_cache.tags.tagsInUse            0                       # Average ticks per tags in use ((Tick/Count))
system.cpu0.dtb_walker_cache.tags.totalRefs            0                       # Total number of references to valid blocks. (Count)
system.cpu0.dtb_walker_cache.tags.sampledRefs            0                       # Sample count of references to valid blocks. (Count)
system.cpu0.dtb_walker_cache.tags.avgRefs          nan                       # Average number of references to valid blocks. ((Count/Count))
system.cpu0.dtb_walker_cache.tags.warmupTick            0                       # The tick when the warmup percentage was hit. (Tick)
system.cpu0.dtb_walker_cache.tags.tagAccesses            0                       # Number of tag accesses (Count)
system.cpu0.dtb_walker_cache.tags.dataAccesses            0                       # Number of data accesses (Count)
system.cpu0.dtb_walker_cache.tags.power_state.pwrStateResidencyTicks::UNDEFINED 130065701750                       # Cumulative time (in ticks) in various power states (Tick)
system.cpu0.fetch.icacheStallCycles          15192565                       # Number of cycles fetch is stalled on an Icache miss (Cycle)
system.cpu0.fetch.insts                     114926857                       # Number of instructions fetch has processed (Count)
system.cpu0.fetch.branches                   10645640                       # Number of branches that fetch encountered (Count)
system.cpu0.fetch.predictedBranches           7551307                       # Number of branches that fetch has predicted taken (Count)
system.cpu0.fetch.cycles                    503651533                       # Number of cycles fetch has run and was not squashing or blocked (Cycle)
system.cpu0.fetch.squashCycles                2025414                       # Number of cycles fetch has spent squashing (Cycle)
system.cpu0.fetch.miscStallCycles                1015                       # Number of cycles fetch has spent waiting on interrupts, or bad addresses, or out of MSHRs (Cycle)
system.cpu0.fetch.pendingTrapStallCycles         6761                       # Number of stall cycles due to pending traps (Cycle)
system.cpu0.fetch.icacheWaitRetryStallCycles           80                       # Number of stall cycles due to full MSHR (Cycle)
system.cpu0.fetch.cacheLines                 14829542                       # Number of cache lines fetched (Count)
system.cpu0.fetch.icacheSquashes                 3326                       # Number of outstanding Icache misses that were squashed (Count)
system.cpu0.fetch.nisnDist::samples         519864661                       # Number of instructions fetched each cycle (Total) (Count)
system.cpu0.fetch.nisnDist::mean             0.477163                       # Number of instructions fetched each cycle (Total) (Count)
system.cpu0.fetch.nisnDist::stdev            1.788164                       # Number of instructions fetched each cycle (Total) (Count)
system.cpu0.fetch.nisnDist::underflows              0      0.00%      0.00% # Number of instructions fetched each cycle (Total) (Count)
system.cpu0.fetch.nisnDist::0               481856802     92.69%     92.69% # Number of instructions fetched each cycle (Total) (Count)
system.cpu0.fetch.nisnDist::1                  639271      0.12%     92.81% # Number of instructions fetched each cycle (Total) (Count)
system.cpu0.fetch.nisnDist::2                 2589387      0.50%     93.31% # Number of instructions fetched each cycle (Total) (Count)
system.cpu0.fetch.nisnDist::3                 2200001      0.42%     93.73% # Number of instructions fetched each cycle (Total) (Count)
system.cpu0.fetch.nisnDist::4                 1845922      0.36%     94.09% # Number of instructions fetched each cycle (Total) (Count)
system.cpu0.fetch.nisnDist::5                 1136923      0.22%     94.31% # Number of instructions fetched each cycle (Total) (Count)
system.cpu0.fetch.nisnDist::6                 5341648      1.03%     95.33% # Number of instructions fetched each cycle (Total) (Count)
system.cpu0.fetch.nisnDist::7                 3513782      0.68%     96.01% # Number of instructions fetched each cycle (Total) (Count)
system.cpu0.fetch.nisnDist::8                20740925      3.99%    100.00% # Number of instructions fetched each cycle (Total) (Count)
system.cpu0.fetch.nisnDist::overflows               0      0.00%    100.00% # Number of instructions fetched each cycle (Total) (Count)
system.cpu0.fetch.nisnDist::min_value               0                       # Number of instructions fetched each cycle (Total) (Count)
system.cpu0.fetch.nisnDist::max_value               8                       # Number of instructions fetched each cycle (Total) (Count)
system.cpu0.fetch.nisnDist::total           519864661                       # Number of instructions fetched each cycle (Total) (Count)
system.cpu0.fetch.branchRate                 0.020462                       # Number of branch fetches per cycle (Ratio)
system.cpu0.fetch.rate                       0.220902                       # Number of inst fetches per cycle ((Count/Cycle))
system.cpu0.icache.demandHits::cpu0.inst     14826125                       # number of demand (read+write) hits (Count)
system.cpu0.icache.demandHits::total         14826125                       # number of demand (read+write) hits (Count)
system.cpu0.icache.overallHits::cpu0.inst     14826125                       # number of overall hits (Count)
system.cpu0.icache.overallHits::total        14826125                       # number of overall hits (Count)
system.cpu0.icache.demandMisses::cpu0.inst         3417                       # number of demand (read+write) misses (Count)
system.cpu0.icache.demandMisses::total           3417                       # number of demand (read+write) misses (Count)
system.cpu0.icache.overallMisses::cpu0.inst         3417                       # number of overall misses (Count)
system.cpu0.icache.overallMisses::total          3417                       # number of overall misses (Count)
system.cpu0.icache.demandMissLatency::cpu0.inst    228238249                       # number of demand (read+write) miss ticks (Tick)
system.cpu0.icache.demandMissLatency::total    228238249                       # number of demand (read+write) miss ticks (Tick)
system.cpu0.icache.overallMissLatency::cpu0.inst    228238249                       # number of overall miss ticks (Tick)
system.cpu0.icache.overallMissLatency::total    228238249                       # number of overall miss ticks (Tick)
system.cpu0.icache.demandAccesses::cpu0.inst     14829542                       # number of demand (read+write) accesses (Count)
system.cpu0.icache.demandAccesses::total     14829542                       # number of demand (read+write) accesses (Count)
system.cpu0.icache.overallAccesses::cpu0.inst     14829542                       # number of overall (read+write) accesses (Count)
system.cpu0.icache.overallAccesses::total     14829542                       # number of overall (read+write) accesses (Count)
system.cpu0.icache.demandMissRate::cpu0.inst     0.000230                       # miss rate for demand accesses (Ratio)
system.cpu0.icache.demandMissRate::total     0.000230                       # miss rate for demand accesses (Ratio)
system.cpu0.icache.overallMissRate::cpu0.inst     0.000230                       # miss rate for overall accesses (Ratio)
system.cpu0.icache.overallMissRate::total     0.000230                       # miss rate for overall accesses (Ratio)
system.cpu0.icache.demandAvgMissLatency::cpu0.inst 66794.922154                       # average overall miss latency in ticks ((Tick/Count))
system.cpu0.icache.demandAvgMissLatency::total 66794.922154                       # average overall miss latency in ticks ((Tick/Count))
system.cpu0.icache.overallAvgMissLatency::cpu0.inst 66794.922154                       # average overall miss latency ((Tick/Count))
system.cpu0.icache.overallAvgMissLatency::total 66794.922154                       # average overall miss latency ((Tick/Count))
system.cpu0.icache.blockedCycles::no_mshrs          907                       # number of cycles access was blocked (Cycle)
system.cpu0.icache.blockedCycles::no_targets            0                       # number of cycles access was blocked (Cycle)
system.cpu0.icache.blockedCauses::no_mshrs           17                       # number of times access was blocked (Count)
system.cpu0.icache.blockedCauses::no_targets            0                       # number of times access was blocked (Count)
system.cpu0.icache.avgBlocked::no_mshrs     53.352941                       # average number of cycles each access was blocked ((Cycle/Count))
system.cpu0.icache.avgBlocked::no_targets          nan                       # average number of cycles each access was blocked ((Cycle/Count))
system.cpu0.icache.writebacks::writebacks         2153                       # number of writebacks (Count)
system.cpu0.icache.writebacks::total             2153                       # number of writebacks (Count)
system.cpu0.icache.demandMshrHits::cpu0.inst          746                       # number of demand (read+write) MSHR hits (Count)
system.cpu0.icache.demandMshrHits::total          746                       # number of demand (read+write) MSHR hits (Count)
system.cpu0.icache.overallMshrHits::cpu0.inst          746                       # number of overall MSHR hits (Count)
system.cpu0.icache.overallMshrHits::total          746                       # number of overall MSHR hits (Count)
system.cpu0.icache.demandMshrMisses::cpu0.inst         2671                       # number of demand (read+write) MSHR misses (Count)
system.cpu0.icache.demandMshrMisses::total         2671                       # number of demand (read+write) MSHR misses (Count)
system.cpu0.icache.overallMshrMisses::cpu0.inst         2671                       # number of overall MSHR misses (Count)
system.cpu0.icache.overallMshrMisses::total         2671                       # number of overall MSHR misses (Count)
system.cpu0.icache.demandMshrMissLatency::cpu0.inst    178951500                       # number of demand (read+write) MSHR miss ticks (Tick)
system.cpu0.icache.demandMshrMissLatency::total    178951500                       # number of demand (read+write) MSHR miss ticks (Tick)
system.cpu0.icache.overallMshrMissLatency::cpu0.inst    178951500                       # number of overall MSHR miss ticks (Tick)
system.cpu0.icache.overallMshrMissLatency::total    178951500                       # number of overall MSHR miss ticks (Tick)
system.cpu0.icache.demandMshrMissRate::cpu0.inst     0.000180                       # mshr miss ratio for demand accesses (Ratio)
system.cpu0.icache.demandMshrMissRate::total     0.000180                       # mshr miss ratio for demand accesses (Ratio)
system.cpu0.icache.overallMshrMissRate::cpu0.inst     0.000180                       # mshr miss ratio for overall accesses (Ratio)
system.cpu0.icache.overallMshrMissRate::total     0.000180                       # mshr miss ratio for overall accesses (Ratio)
system.cpu0.icache.demandAvgMshrMissLatency::cpu0.inst 66997.940846                       # average overall mshr miss latency ((Tick/Count))
system.cpu0.icache.demandAvgMshrMissLatency::total 66997.940846                       # average overall mshr miss latency ((Tick/Count))
system.cpu0.icache.overallAvgMshrMissLatency::cpu0.inst 66997.940846                       # average overall mshr miss latency ((Tick/Count))
system.cpu0.icache.overallAvgMshrMissLatency::total 66997.940846                       # average overall mshr miss latency ((Tick/Count))
system.cpu0.icache.replacements                  2153                       # number of replacements (Count)
system.cpu0.icache.ReadReq.hits::cpu0.inst     14826125                       # number of ReadReq hits (Count)
system.cpu0.icache.ReadReq.hits::total       14826125                       # number of ReadReq hits (Count)
system.cpu0.icache.ReadReq.misses::cpu0.inst         3417                       # number of ReadReq misses (Count)
system.cpu0.icache.ReadReq.misses::total         3417                       # number of ReadReq misses (Count)
system.cpu0.icache.ReadReq.missLatency::cpu0.inst    228238249                       # number of ReadReq miss ticks (Tick)
system.cpu0.icache.ReadReq.missLatency::total    228238249                       # number of ReadReq miss ticks (Tick)
system.cpu0.icache.ReadReq.accesses::cpu0.inst     14829542                       # number of ReadReq accesses(hits+misses) (Count)
system.cpu0.icache.ReadReq.accesses::total     14829542                       # number of ReadReq accesses(hits+misses) (Count)
system.cpu0.icache.ReadReq.missRate::cpu0.inst     0.000230                       # miss rate for ReadReq accesses (Ratio)
system.cpu0.icache.ReadReq.missRate::total     0.000230                       # miss rate for ReadReq accesses (Ratio)
system.cpu0.icache.ReadReq.avgMissLatency::cpu0.inst 66794.922154                       # average ReadReq miss latency ((Tick/Count))
system.cpu0.icache.ReadReq.avgMissLatency::total 66794.922154                       # average ReadReq miss latency ((Tick/Count))
system.cpu0.icache.ReadReq.mshrHits::cpu0.inst          746                       # number of ReadReq MSHR hits (Count)
system.cpu0.icache.ReadReq.mshrHits::total          746                       # number of ReadReq MSHR hits (Count)
system.cpu0.icache.ReadReq.mshrMisses::cpu0.inst         2671                       # number of ReadReq MSHR misses (Count)
system.cpu0.icache.ReadReq.mshrMisses::total         2671                       # number of ReadReq MSHR misses (Count)
system.cpu0.icache.ReadReq.mshrMissLatency::cpu0.inst    178951500                       # number of ReadReq MSHR miss ticks (Tick)
system.cpu0.icache.ReadReq.mshrMissLatency::total    178951500                       # number of ReadReq MSHR miss ticks (Tick)
system.cpu0.icache.ReadReq.mshrMissRate::cpu0.inst     0.000180                       # mshr miss rate for ReadReq accesses (Ratio)
system.cpu0.icache.ReadReq.mshrMissRate::total     0.000180                       # mshr miss rate for ReadReq accesses (Ratio)
system.cpu0.icache.ReadReq.avgMshrMissLatency::cpu0.inst 66997.940846                       # average ReadReq mshr miss latency ((Tick/Count))
system.cpu0.icache.ReadReq.avgMshrMissLatency::total 66997.940846                       # average ReadReq mshr miss latency ((Tick/Count))
system.cpu0.icache.power_state.pwrStateResidencyTicks::UNDEFINED 130065701750                       # Cumulative time (in ticks) in various power states (Tick)
system.cpu0.icache.tags.tagsInUse          509.374340                       # Average ticks per tags in use ((Tick/Count))
system.cpu0.icache.tags.totalRefs            14828795                       # Total number of references to valid blocks. (Count)
system.cpu0.icache.tags.sampledRefs              2670                       # Sample count of references to valid blocks. (Count)
system.cpu0.icache.tags.avgRefs           5553.855805                       # Average number of references to valid blocks. ((Count/Count))
system.cpu0.icache.tags.warmupTick              85250                       # The tick when the warmup percentage was hit. (Tick)
system.cpu0.icache.tags.occupancies::cpu0.inst   509.374340                       # Average occupied blocks per tick, per requestor ((Count/Tick))
system.cpu0.icache.tags.avgOccs::cpu0.inst     0.994872                       # Average percentage of cache occupancy ((Ratio/Tick))
system.cpu0.icache.tags.avgOccs::total       0.994872                       # Average percentage of cache occupancy ((Ratio/Tick))
system.cpu0.icache.tags.occupanciesTaskId::1024          512                       # Occupied blocks per task id (Count)
system.cpu0.icache.tags.ageTaskId_1024::0          106                       # Occupied blocks per task id, per block age (Count)
system.cpu0.icache.tags.ageTaskId_1024::1           68                       # Occupied blocks per task id, per block age (Count)
system.cpu0.icache.tags.ageTaskId_1024::4          338                       # Occupied blocks per task id, per block age (Count)
system.cpu0.icache.tags.ratioOccsTaskId::1024            1                       # Ratio of occupied blocks and all blocks, per task id (Ratio)
system.cpu0.icache.tags.tagAccesses          29661754                       # Number of tag accesses (Count)
system.cpu0.icache.tags.dataAccesses         29661754                       # Number of data accesses (Count)
system.cpu0.icache.tags.power_state.pwrStateResidencyTicks::UNDEFINED 130065701750                       # Cumulative time (in ticks) in various power states (Tick)
system.cpu0.iew.idleCycles                          0                       # Number of cycles IEW is idle (Cycle)
system.cpu0.iew.squashCycles                  1011376                       # Number of cycles IEW is squashing (Cycle)
system.cpu0.iew.blockCycles                  46170981                       # Number of cycles IEW is blocking (Cycle)
system.cpu0.iew.unblockCycles                66746502                       # Number of cycles IEW is unblocking (Cycle)
system.cpu0.iew.dispatchedInsts             197858423                       # Number of instructions dispatched to IQ (Count)
system.cpu0.iew.dispSquashedInsts                1067                       # Number of squashed instructions skipped by dispatch (Count)
system.cpu0.iew.dispLoadInsts                44216051                       # Number of dispatched load instructions (Count)
system.cpu0.iew.dispStoreInsts               43066460                       # Number of dispatched store instructions (Count)
system.cpu0.iew.dispNonSpecInsts                  528                       # Number of dispatched non-speculative instructions (Count)
system.cpu0.iew.iqFullEvents                     3171                       # Number of times the IQ has become full, causing a stall (Count)
system.cpu0.iew.lsqFullEvents                66774707                       # Number of times the LSQ has become full, causing a stall (Count)
system.cpu0.iew.memOrderViolationEvents           377                       # Number of memory order violations (Count)
system.cpu0.iew.predictedTakenIncorrect          2694                       # Number of branches that were predicted taken incorrectly (Count)
system.cpu0.iew.predictedNotTakenIncorrect         7193                       # Number of branches that were predicted not taken incorrectly (Count)
system.cpu0.iew.branchMispredicts                9887                       # Number of branch mispredicts detected at execute (Count)
system.cpu0.iew.instsToCommit               197698704                       # Cumulative count of insts sent to commit (Count)
[...]
system.mem_ctrls3.dram.readRowHits            1470181                       # Number of row buffer hits during reads (Count)
system.mem_ctrls3.dram.writeRowHits           1077130                       # Number of row buffer hits during writes (Count)
system.mem_ctrls3.dram.readRowHitRate           49.99                       # Row buffer hit rate for reads (Ratio)
system.mem_ctrls3.dram.writeRowHitRate          86.13                       # Row buffer hit rate for writes (Ratio)
system.mem_ctrls3.dram.bytesPerActivate::samples      1644137                       # Bytes accessed per row activation (Byte)
system.mem_ctrls3.dram.bytesPerActivate::mean    81.578564                       # Bytes accessed per row activation (Byte)
system.mem_ctrls3.dram.bytesPerActivate::gmean    71.913369                       # Bytes accessed per row activation (Byte)
system.mem_ctrls3.dram.bytesPerActivate::stdev    61.982372                       # Bytes accessed per row activation (Byte)
system.mem_ctrls3.dram.bytesPerActivate::0-63        11023      0.67%      0.67% # Bytes accessed per row activation (Byte)
system.mem_ctrls3.dram.bytesPerActivate::64-127      1494690     90.91%     91.58% # Bytes accessed per row activation (Byte)
system.mem_ctrls3.dram.bytesPerActivate::128-191        14444      0.88%     92.46% # Bytes accessed per row activation (Byte)
system.mem_ctrls3.dram.bytesPerActivate::192-255        23349      1.42%     93.88% # Bytes accessed per row activation (Byte)
system.mem_ctrls3.dram.bytesPerActivate::256-319        51778      3.15%     97.03% # Bytes accessed per row activation (Byte)
system.mem_ctrls3.dram.bytesPerActivate::320-383        39673      2.41%     99.44% # Bytes accessed per row activation (Byte)
system.mem_ctrls3.dram.bytesPerActivate::384-447         5691      0.35%     99.79% # Bytes accessed per row activation (Byte)
system.mem_ctrls3.dram.bytesPerActivate::448-511         1532      0.09%     99.88% # Bytes accessed per row activation (Byte)
system.mem_ctrls3.dram.bytesPerActivate::512-575         1957      0.12%    100.00% # Bytes accessed per row activation (Byte)
system.mem_ctrls3.dram.bytesPerActivate::total      1644137                       # Bytes accessed per row activation (Byte)
system.mem_ctrls3.dram.bytesRead             94105504                       # Total bytes read (Byte)
system.mem_ctrls3.dram.bytesWritten          40020832                       # Total bytes written (Byte)
system.mem_ctrls3.dram.avgRdBW             723.522825                       # Average DRAM read bandwidth in MiBytes/s ((Byte/Second))
system.mem_ctrls3.dram.avgWrBW             307.697044                       # Average DRAM write bandwidth in MiBytes/s ((Byte/Second))
system.mem_ctrls3.dram.peakBW                16000.00                       # Theoretical peak bandwidth in MiByte/s ((Byte/Second))
system.mem_ctrls3.dram.busUtil                   6.45                       # Data bus utilization in percentage (Ratio)
system.mem_ctrls3.dram.busUtilRead               4.52                       # Data bus utilization in percentage for reads (Ratio)
system.mem_ctrls3.dram.busUtilWrite              1.92                       # Data bus utilization in percentage for writes (Ratio)
system.mem_ctrls3.dram.pageHitRate              60.77                       # Row buffer hit rate, read and write combined (Ratio)
system.mem_ctrls3.dram.power_state.pwrStateResidencyTicks::UNDEFINED 130065701750                       # Cumulative time (in ticks) in various power states (Tick)
system.mem_ctrls3.dram.rank0.actEnergy              0                       # Energy for activate commands per rank (pJ) (Joule)
system.mem_ctrls3.dram.rank0.preEnergy              0                       # Energy for precharge commands per rank (pJ) (Joule)
system.mem_ctrls3.dram.rank0.readEnergy             0                       # Energy for read commands per rank (pJ) (Joule)
system.mem_ctrls3.dram.rank0.writeEnergy            0                       # Energy for write commands per rank (pJ) (Joule)
system.mem_ctrls3.dram.rank0.refreshEnergy            0                       # Energy for refresh commands per rank (pJ) (Joule)
system.mem_ctrls3.dram.rank0.actBackEnergy            0                       # Energy for active background per rank (pJ) (Joule)
system.mem_ctrls3.dram.rank0.preBackEnergy            0                       # Energy for precharge background per rank (pJ) (Joule)
system.mem_ctrls3.dram.rank0.actPowerDownEnergy            0                       # Energy for active power-down per rank (pJ) (Joule)
system.mem_ctrls3.dram.rank0.prePowerDownEnergy            0                       # Energy for precharge power-down per rank (pJ) (Joule)
system.mem_ctrls3.dram.rank0.selfRefreshEnergy            0                       # Energy for self refresh per rank (pJ) (Joule)
system.mem_ctrls3.dram.rank0.totalEnergy            0                       # Total energy per rank (pJ) (Joule)
system.mem_ctrls3.dram.rank0.averagePower            0                       # Core power per rank (mW) (Watt)
system.mem_ctrls3.dram.rank0.totalIdleTime            0                       # Total Idle time Per DRAM Rank (Tick)
system.mem_ctrls3.dram.rank0.pwrStateTime::IDLE  65433084526                       # Time in different power states (Tick)
system.mem_ctrls3.dram.rank0.pwrStateTime::REF   7363400000                       # Time in different power states (Tick)
system.mem_ctrls3.dram.rank0.pwrStateTime::SREF            0                       # Time in different power states (Tick)
system.mem_ctrls3.dram.rank0.pwrStateTime::PRE_PDN            0                       # Time in different power states (Tick)
system.mem_ctrls3.dram.rank0.pwrStateTime::ACT  57269217224                       # Time in different power states (Tick)
system.mem_ctrls3.dram.rank0.pwrStateTime::ACT_PDN            0                       # Time in different power states (Tick)
system.mem_ctrls3.power_state.pwrStateResidencyTicks::UNDEFINED 130065701750                       # Cumulative time (in ticks) in various power states (Tick)
system.membus.transDist::ReadResp             3505454                       # Transaction distribution (Count)
system.membus.transDist::WritebackDirty       2501491                       # Transaction distribution (Count)
system.membus.transDist::CleanEvict           3345916                       # Transaction distribution (Count)
system.membus.transDist::UpgradeReq                36                       # Transaction distribution (Count)
system.membus.transDist::ReadExReq            2376205                       # Transaction distribution (Count)
system.membus.transDist::ReadExResp           2376205                       # Transaction distribution (Count)
system.membus.transDist::ReadSharedReq        3505454                       # Transaction distribution (Count)
system.membus.pktCount_system.l2.mem_side_port::system.mem_ctrls0.port      4402891                       # Packet count per connected requestor and responder (Count)
system.membus.pktCount_system.l2.mem_side_port::system.mem_ctrls1.port      4402365                       # Packet count per connected requestor and responder (Count)
system.membus.pktCount_system.l2.mem_side_port::system.mem_ctrls2.port      4402835                       # Packet count per connected requestor and responder (Count)
system.membus.pktCount_system.l2.mem_side_port::system.mem_ctrls3.port      4402670                       # Packet count per connected requestor and responder (Count)
system.membus.pktCount_system.l2.mem_side_port::total     17610761                       # Packet count per connected requestor and responder (Count)
system.membus.pktCount::total                17610761                       # Packet count per connected requestor and responder (Count)
system.membus.pktSize_system.l2.mem_side_port::system.mem_ctrls0.port    134136512                       # Cumulative packet size per connected requestor and responder (Byte)
system.membus.pktSize_system.l2.mem_side_port::system.mem_ctrls1.port    134119360                       # Cumulative packet size per connected requestor and responder (Byte)
system.membus.pktSize_system.l2.mem_side_port::system.mem_ctrls2.port    134137984                       # Cumulative packet size per connected requestor and responder (Byte)
system.membus.pktSize_system.l2.mem_side_port::system.mem_ctrls3.port    134127744                       # Cumulative packet size per connected requestor and responder (Byte)
system.membus.pktSize_system.l2.mem_side_port::total    536521600                       # Cumulative packet size per connected requestor and responder (Byte)
system.membus.pktSize::total                536521600                       # Cumulative packet size per connected requestor and responder (Byte)
system.membus.snoops                               36                       # Total snoops (Count)
system.membus.snoopTraffic                          0                       # Total snoop traffic (Byte)
system.membus.snoopFanout::samples            5881695                       # Request fanout histogram (Count)
system.membus.snoopFanout::mean                     0                       # Request fanout histogram (Count)
system.membus.snoopFanout::stdev                    0                       # Request fanout histogram (Count)
system.membus.snoopFanout::underflows               0      0.00%      0.00% # Request fanout histogram (Count)
system.membus.snoopFanout::0                  5881695    100.00%    100.00% # Request fanout histogram (Count)
system.membus.snoopFanout::1                        0      0.00%    100.00% # Request fanout histogram (Count)
system.membus.snoopFanout::overflows                0      0.00%    100.00% # Request fanout histogram (Count)
system.membus.snoopFanout::min_value                0                       # Request fanout histogram (Count)
system.membus.snoopFanout::max_value                0                       # Request fanout histogram (Count)
system.membus.snoopFanout::total              5881695                       # Request fanout histogram (Count)
system.membus.power_state.pwrStateResidencyTicks::UNDEFINED 130065701750                       # Cumulative time (in ticks) in various power states (Tick)
system.membus.reqLayer4.occupancy          5819752053                       # Layer occupancy (ticks) (Tick)
system.membus.reqLayer4.utilization               0.0                       # Layer utilization (Ratio)
system.membus.reqLayer5.occupancy          5819115172                       # Layer occupancy (ticks) (Tick)
system.membus.reqLayer5.utilization               0.0                       # Layer utilization (Ratio)
system.membus.reqLayer6.occupancy          5818919092                       # Layer occupancy (ticks) (Tick)
system.membus.reqLayer6.utilization               0.0                       # Layer utilization (Ratio)
system.membus.reqLayer7.occupancy          5819175643                       # Layer occupancy (ticks) (Tick)
system.membus.reqLayer7.utilization               0.0                       # Layer utilization (Ratio)
system.membus.respLayer1.occupancy        29884154957                       # Layer occupancy (ticks) (Tick)
system.membus.respLayer1.utilization              0.2                       # Layer utilization (Ratio)
system.membus.snoop_filter.totRequests       11729102                       # Total number of requests made to the snoop filter. (Count)
system.membus.snoop_filter.hitSingleRequests      5848368                       # Number of requests hitting in the snoop filter with a single holder of the requested data. (Count)
system.membus.snoop_filter.hitMultiRequests            0                       # Number of requests hitting in the snoop filter with multiple (>1) holders of the requested data. (Count)
system.membus.snoop_filter.totSnoops                0                       # Total number of snoops made to the snoop filter. (Count)
system.membus.snoop_filter.hitSingleSnoops            0                       # Number of snoops hitting in the snoop filter with a single holder of the requested data. (Count)
system.membus.snoop_filter.hitMultiSnoops            0                       # Number of snoops hitting in the snoop filter with multiple (>1) holders of the requested data. (Count)
system.tol2bus.transDist::ReadResp            3507541                       # Transaction distribution (Count)
system.tol2bus.transDist::WritebackDirty      5003532                       # Transaction distribution (Count)
system.tol2bus.transDist::WritebackClean         2157                       # Transaction distribution (Count)
system.tol2bus.transDist::CleanEvict          6724556                       # Transaction distribution (Count)
system.tol2bus.transDist::UpgradeReq              104                       # Transaction distribution (Count)
system.tol2bus.transDist::UpgradeResp             104                       # Transaction distribution (Count)
system.tol2bus.transDist::ReadExReq           2376415                       # Transaction distribution (Count)
system.tol2bus.transDist::ReadExResp          2376415                       # Transaction distribution (Count)
system.tol2bus.transDist::ReadCleanReq           2814                       # Transaction distribution (Count)
system.tol2bus.transDist::ReadSharedReq       3504728                       # Transaction distribution (Count)
system.tol2bus.pktCount_system.cpu0.icache.mem_side_port::system.l2.cpu_side_port         7491                       # Packet count per connected requestor and responder (Count)
system.tol2bus.pktCount_system.cpu0.dcache.mem_side_port::system.l2.cpu_side_port      9390655                       # Packet count per connected requestor and responder (Count)
system.tol2bus.pktCount_system.cpu1.icache.mem_side_port::system.l2.cpu_side_port          286                       # Packet count per connected requestor and responder (Count)
system.tol2bus.pktCount_system.cpu1.dcache.mem_side_port::system.l2.cpu_side_port      8250280                       # Packet count per connected requestor and responder (Count)
system.tol2bus.pktCount::total               17648712                       # Packet count per connected requestor and responder (Count)
system.tol2bus.pktSize_system.cpu0.icache.mem_side_port::system.l2.cpu_side_port       308480                       # Cumulative packet size per connected requestor and responder (Byte)
system.tol2bus.pktSize_system.cpu0.dcache.mem_side_port::system.l2.cpu_side_port    280479040                       # Cumulative packet size per connected requestor and responder (Byte)
system.tol2bus.pktSize_system.cpu1.icache.mem_side_port::system.l2.cpu_side_port         9152                       # Cumulative packet size per connected requestor and responder (Byte)
system.tol2bus.pktSize_system.cpu1.dcache.mem_side_port::system.l2.cpu_side_port    256017920                       # Cumulative packet size per connected requestor and responder (Byte)
system.tol2bus.pktSize::total               536814592                       # Cumulative packet size per connected requestor and responder (Byte)
system.tol2bus.snoops                         5849654                       # Total snoops (Count)
system.tol2bus.snoopTraffic                 160122688                       # Total snoop traffic (Byte)
system.tol2bus.snoopFanout::samples          11733253                       # Request fanout histogram (Count)
system.tol2bus.snoopFanout::mean             0.000343                       # Request fanout histogram (Count)
system.tol2bus.snoopFanout::stdev            0.019058                       # Request fanout histogram (Count)
system.tol2bus.snoopFanout::underflows              0      0.00%      0.00% # Request fanout histogram (Count)
system.tol2bus.snoopFanout::0                11729356     99.97%     99.97% # Request fanout histogram (Count)
system.tol2bus.snoopFanout::1                    3775      0.03%    100.00% # Request fanout histogram (Count)
system.tol2bus.snoopFanout::2                     122      0.00%    100.00% # Request fanout histogram (Count)
system.tol2bus.snoopFanout::3                       0      0.00%    100.00% # Request fanout histogram (Count)
system.tol2bus.snoopFanout::4                       0      0.00%    100.00% # Request fanout histogram (Count)
system.tol2bus.snoopFanout::5                       0      0.00%    100.00% # Request fanout histogram (Count)
system.tol2bus.snoopFanout::6                       0      0.00%    100.00% # Request fanout histogram (Count)
system.tol2bus.snoopFanout::7                       0      0.00%    100.00% # Request fanout histogram (Count)
system.tol2bus.snoopFanout::8                       0      0.00%    100.00% # Request fanout histogram (Count)
system.tol2bus.snoopFanout::overflows               0      0.00%    100.00% # Request fanout histogram (Count)
system.tol2bus.snoopFanout::min_value               0                       # Request fanout histogram (Count)
system.tol2bus.snoopFanout::max_value               2                       # Request fanout histogram (Count)
system.tol2bus.snoopFanout::total            11733253                       # Request fanout histogram (Count)
system.tol2bus.power_state.pwrStateResidencyTicks::UNDEFINED 130065701750                       # Cumulative time (in ticks) in various power states (Tick)
system.tol2bus.reqLayer0.occupancy         4193377998                       # Layer occupancy (ticks) (Tick)
system.tol2bus.reqLayer0.utilization              0.0                       # Layer utilization (Ratio)
system.tol2bus.respLayer0.occupancy           2004243                       # Layer occupancy (ticks) (Tick)
system.tol2bus.respLayer0.utilization             0.0                       # Layer utilization (Ratio)
system.tol2bus.respLayer1.occupancy        2347971995                       # Layer occupancy (ticks) (Tick)
system.tol2bus.respLayer1.utilization             0.0                       # Layer utilization (Ratio)
system.tol2bus.respLayer4.occupancy            110238                       # Layer occupancy (ticks) (Tick)
system.tol2bus.respLayer4.utilization             0.0                       # Layer utilization (Ratio)
system.tol2bus.respLayer5.occupancy        2062913996                       # Layer occupancy (ticks) (Tick)
system.tol2bus.respLayer5.utilization             0.0                       # Layer utilization (Ratio)
system.tol2bus.snoop_filter.totRequests      11765114                       # Total number of requests made to the snoop filter. (Count)
system.tol2bus.snoop_filter.hitSingleRequests      5882006                       # Number of requests hitting in the snoop filter with a single holder of the requested data. (Count)
system.tol2bus.snoop_filter.hitMultiRequests         1010                       # Number of requests hitting in the snoop filter with multiple (>1) holders of the requested data. (Count)
system.tol2bus.snoop_filter.totSnoops            1979                       # Total number of snoops made to the snoop filter. (Count)
system.tol2bus.snoop_filter.hitSingleSnoops         1872                       # Number of snoops hitting in the snoop filter with a single holder of the requested data. (Count)
system.tol2bus.snoop_filter.hitMultiSnoops          107                       # Number of snoops hitting in the snoop filter with multiple (>1) holders of the requested data. (Count)
system.voltage_domain.voltage                       1                       # Voltage in Volts (Volt)
system.workload.inst.arm                            0                       # number of arm instructions executed (Count)
system.workload.inst.quiesce                        0                       # number of quiesce instructions executed (Count)

---------- End Simulation Statistics   ----------
