Global frequency set at 1000000000000 ticks per second
gem5 Simulator System.  https://www.gem5.org
gem5 is copyrighted software; use the --copyright option for details.

gem5 version 22.0.0.2
gem5 compiled Aug  8 2022 00:57:17
gem5 started Aug  9 2022 07:42:47
gem5 executing on codespaces-4933b6, pid 25329
command line: ../gem5/build/X86/gem5.opt --outdir=./result/test9/HBM_2000_4H_1x64 se.py --cpu-type DerivO3CPU -n 4 --cpu-clock 4GHz --caches --l2cache --mem-type HBM_2000_4H_1x64 --cmd ./workload/stream_omp_X86.1M
command line: ../gem5/build/X86/gem5.opt --outdir=./result/test3/HBM_2000_4H_1x64 se.py --cpu-type DerivO3CPU -n 8 --cpu-clock 3GHz --mem-type HBM_2000_4H_1x64 --mem-channels 4 --caches --l2cache --cmd ./workload/stream_omp.1M_1T
command line: ../gem5/build/X86/gem5.opt --outdir=./result/test4/HBM_2000_4H_1x64 se.py --cpu-type DerivO3CPU -n 8 --cpu-clock 3GHz --mem-type HBM_2000_4H_1x64 --mem-channels 2 --caches --l2cache --cmd ./workload/stream_omp.1M_1T

info: Standard input is not a terminal, disabling listeners.
**** REAL SIMULATION ****
-------------------------------------------------------------
STREAM version $Revision: 5.10 $
-------------------------------------------------------------
This system uses 8 bytes per array element.
-------------------------------------------------------------
Array size = 1000000 (elements), Offset = 0 (elements)
Memory per array = 7.6 MiB (= 0.0 GiB).
Total memory required = 22.9 MiB (= 0.0 GiB).
Each kernel will be executed 3 times.
 The *best* time for each kernel (excluding the first iteration)
 will be used to compute the reported bandwidth.
-------------------------------------------------------------
Number of Threads requested = 4
Number of Threads counted = 4
-------------------------------------------------------------
Your clock granularity/precision appears to be 1 microseconds.
Each test below will take on the order of 3559 microseconds.
   (= 3559 clock ticks)
Increase the size of the arrays if this shows that
you are not getting at least 20 clock ticks per test.
-------------------------------------------------------------
WARNING -- The above is only a rough guideline.
For best results, please be sure you know the
precision of your system timer.
-------------------------------------------------------------
Function    Best Rate MB/s  Avg time     Min time     Max time
Copy:            4105.8     0.003900     0.003897     0.003903
Scale:           4394.4     0.003644     0.003641     0.003646
Add:             5319.2     0.004530     0.004512     0.004548
Triad:           6128.7     0.003938     0.003916     0.003960
-------------------------------------------------------------
Solution Validates: avg error less than 1.000000e-13 on all three arrays
-------------------------------------------------------------
Exiting @ tick 74301211250 because exiting with last active thread context
