Global frequency set at 1000000000000 ticks per second
gem5 Simulator System.  https://www.gem5.org
gem5 is copyrighted software; use the --copyright option for details.

gem5 version 22.0.0.2
gem5 compiled Aug  1 2022 08:47:18
gem5 started Aug  3 2022 05:21:14
gem5 executing on codespaces-4933b6, pid 2774
command line: ../gem5/build/X86/gem5.opt --outdir=./result/test8/GDDR5_4000_2x32 se.py --cpu-type DerivO3CPU -n 16 --cpu-clock 4GHz --mem-type GDDR5_4000_2x32 --mem-channels 2 --mem-size 2GB --caches --l2cache --cmd ./workload/stream_omp_X86.2M

info: Standard input is not a terminal, disabling listeners.
**** REAL SIMULATION ****
-------------------------------------------------------------
STREAM version $Revision: 5.10 $
-------------------------------------------------------------
This system uses 8 bytes per array element.
-------------------------------------------------------------
Array size = 2000000 (elements), Offset = 0 (elements)
Memory per array = 15.3 MiB (= 0.0 GiB).
Total memory required = 45.8 MiB (= 0.0 GiB).
Each kernel will be executed 3 times.
 The *best* time for each kernel (excluding the first iteration)
 will be used to compute the reported bandwidth.
-------------------------------------------------------------
Number of Threads requested = 16
Number of Threads counted = 16
-------------------------------------------------------------
Your clock granularity/precision appears to be 1 microseconds.
Each test below will take on the order of 1756 microseconds.
   (= 1756 clock ticks)
Increase the size of the arrays if this shows that
you are not getting at least 20 clock ticks per test.
-------------------------------------------------------------
WARNING -- The above is only a rough guideline.
For best results, please be sure you know the
precision of your system timer.
-------------------------------------------------------------
Function    Best Rate MB/s  Avg time     Min time     Max time
Copy:           11291.6     0.002861     0.002834     0.002888
Scale:          11726.2     0.002744     0.002729     0.002760
Add:            11781.8     0.004093     0.004074     0.004111
Triad:          11949.2     0.004045     0.004017     0.004074
-------------------------------------------------------------
Solution Validates: avg error less than 1.000000e-13 on all three arrays
-------------------------------------------------------------
Exiting @ tick 67936051000 because exiting with last active thread context
