
---------- Begin Simulation Statistics ----------
simSeconds                                   0.092518                       # Number of seconds simulated (Second)
simTicks                                  92517865750                       # Number of ticks simulated (Tick)
finalTick                                 92517865750                       # Number of ticks from beginning of simulation (restored from checkpoints and never reset) (Tick)
simFreq                                  1000000000000                       # The number of ticks per simulated second ((Tick/Second))
hostSeconds                                   2019.53                       # Real time elapsed on the host (Second)
hostTickRate                                 45811652                       # The number of ticks simulated per host second (ticks/s) ((Tick/Second))
hostMemory                                    7791796                       # Number of bytes of host memory used (Byte)
simInsts                                    103742534                       # Number of instructions simulated (Count)
simOps                                      186762169                       # Number of ops (including micro ops) simulated (Count)
hostInstRate                                    51370                       # Simulator instruction rate (inst/s) ((Count/Second))
hostOpRate                                      92478                       # Simulator op (including micro ops) rate (op/s) ((Count/Second))
system.clk_domain.clock                          1000                       # Clock period in ticks (Tick)
system.cpu0.numCycles                       370071464                       # Number of cpu cycles simulated (Cycle)
system.cpu0.numWorkItemsStarted                     0                       # Number of work items this cpu started (Count)
system.cpu0.numWorkItemsCompleted                   0                       # Number of work items this cpu completed (Count)
system.cpu0.instsAdded                      117330174                       # Number of instructions added to the IQ (excludes non-spec) (Count)
system.cpu0.nonSpecInstsAdded                    1239                       # Number of non-speculative instructions added to the IQ (Count)
system.cpu0.instsIssued                     117296762                       # Number of instructions issued (Count)
system.cpu0.squashedInstsIssued                  1987                       # Number of squashed instructions issued (Count)
system.cpu0.squashedInstsExamined            48370528                       # Number of squashed instructions iterated over during squash; mainly for profiling (Count)
system.cpu0.squashedOperandsExamined           758909                       # Number of squashed operands that are examined and possibly removed from graph (Count)
system.cpu0.squashedNonSpecRemoved                443                       # Number of squashed non-spec instructions that were removed (Count)
system.cpu0.numIssuedDist::samples          369654185                       # Number of insts issued each cycle (Count)
system.cpu0.numIssuedDist::mean              0.317315                       # Number of insts issued each cycle (Count)
system.cpu0.numIssuedDist::stdev             1.233456                       # Number of insts issued each cycle (Count)
system.cpu0.numIssuedDist::underflows               0      0.00%      0.00% # Number of insts issued each cycle (Count)
system.cpu0.numIssuedDist::0                336847273     91.12%     91.12% # Number of insts issued each cycle (Count)
system.cpu0.numIssuedDist::1                  8455184      2.29%     93.41% # Number of insts issued each cycle (Count)
system.cpu0.numIssuedDist::2                  6289947      1.70%     95.11% # Number of insts issued each cycle (Count)
system.cpu0.numIssuedDist::3                  2891162      0.78%     95.90% # Number of insts issued each cycle (Count)
system.cpu0.numIssuedDist::4                  4267053      1.15%     97.05% # Number of insts issued each cycle (Count)
system.cpu0.numIssuedDist::5                  3291622      0.89%     97.94% # Number of insts issued each cycle (Count)
system.cpu0.numIssuedDist::6                  2379547      0.64%     98.58% # Number of insts issued each cycle (Count)
system.cpu0.numIssuedDist::7                  2074582      0.56%     99.15% # Number of insts issued each cycle (Count)
system.cpu0.numIssuedDist::8                  3157815      0.85%    100.00% # Number of insts issued each cycle (Count)
system.cpu0.numIssuedDist::overflows                0      0.00%    100.00% # Number of insts issued each cycle (Count)
system.cpu0.numIssuedDist::min_value                0                       # Number of insts issued each cycle (Count)
system.cpu0.numIssuedDist::max_value                8                       # Number of insts issued each cycle (Count)
system.cpu0.numIssuedDist::total            369654185                       # Number of insts issued each cycle (Count)
system.cpu0.statFuBusy::No_OpClass                  0      0.00%      0.00% # attempts to use FU when none available (Count)
system.cpu0.statFuBusy::IntAlu                  77168      0.99%      0.99% # attempts to use FU when none available (Count)
system.cpu0.statFuBusy::IntMult                     0      0.00%      0.99% # attempts to use FU when none available (Count)
system.cpu0.statFuBusy::IntDiv                      0      0.00%      0.99% # attempts to use FU when none available (Count)
system.cpu0.statFuBusy::FloatAdd                    0      0.00%      0.99% # attempts to use FU when none available (Count)
system.cpu0.statFuBusy::FloatCmp                    0      0.00%      0.99% # attempts to use FU when none available (Count)
system.cpu0.statFuBusy::FloatCvt                    8      0.00%      0.99% # attempts to use FU when none available (Count)
system.cpu0.statFuBusy::FloatMult                   0      0.00%      0.99% # attempts to use FU when none available (Count)
system.cpu0.statFuBusy::FloatMultAcc                0      0.00%      0.99% # attempts to use FU when none available (Count)
system.cpu0.statFuBusy::FloatDiv                    0      0.00%      0.99% # attempts to use FU when none available (Count)
system.cpu0.statFuBusy::FloatMisc                   0      0.00%      0.99% # attempts to use FU when none available (Count)
system.cpu0.statFuBusy::FloatSqrt                   0      0.00%      0.99% # attempts to use FU when none available (Count)
system.cpu0.statFuBusy::SimdAdd                     2      0.00%      0.99% # attempts to use FU when none available (Count)
system.cpu0.statFuBusy::SimdAddAcc                  0      0.00%      0.99% # attempts to use FU when none available (Count)
system.cpu0.statFuBusy::SimdAlu                   112      0.00%      0.99% # attempts to use FU when none available (Count)
system.cpu0.statFuBusy::SimdCmp                     0      0.00%      0.99% # attempts to use FU when none available (Count)
system.cpu0.statFuBusy::SimdCvt                    89      0.00%      0.99% # attempts to use FU when none available (Count)
system.cpu0.statFuBusy::SimdMisc                   49      0.00%      0.99% # attempts to use FU when none available (Count)
system.cpu0.statFuBusy::SimdMult                    0      0.00%      0.99% # attempts to use FU when none available (Count)
system.cpu0.statFuBusy::SimdMultAcc                 0      0.00%      0.99% # attempts to use FU when none available (Count)
system.cpu0.statFuBusy::SimdShift                  15      0.00%      0.99% # attempts to use FU when none available (Count)
system.cpu0.statFuBusy::SimdShiftAcc                0      0.00%      0.99% # attempts to use FU when none available (Count)
system.cpu0.statFuBusy::SimdDiv                     0      0.00%      0.99% # attempts to use FU when none available (Count)
system.cpu0.statFuBusy::SimdSqrt                    0      0.00%      0.99% # attempts to use FU when none available (Count)
system.cpu0.statFuBusy::SimdFloatAdd           728198      9.32%     10.31% # attempts to use FU when none available (Count)
system.cpu0.statFuBusy::SimdFloatAlu                0      0.00%     10.31% # attempts to use FU when none available (Count)
system.cpu0.statFuBusy::SimdFloatCmp                0      0.00%     10.31% # attempts to use FU when none available (Count)
system.cpu0.statFuBusy::SimdFloatCvt                0      0.00%     10.31% # attempts to use FU when none available (Count)
system.cpu0.statFuBusy::SimdFloatDiv                0      0.00%     10.31% # attempts to use FU when none available (Count)
system.cpu0.statFuBusy::SimdFloatMisc               0      0.00%     10.31% # attempts to use FU when none available (Count)
system.cpu0.statFuBusy::SimdFloatMult               0      0.00%     10.31% # attempts to use FU when none available (Count)
system.cpu0.statFuBusy::SimdFloatMultAcc            0      0.00%     10.31% # attempts to use FU when none available (Count)
system.cpu0.statFuBusy::SimdFloatSqrt               0      0.00%     10.31% # attempts to use FU when none available (Count)
system.cpu0.statFuBusy::SimdReduceAdd               0      0.00%     10.31% # attempts to use FU when none available (Count)
system.cpu0.statFuBusy::SimdReduceAlu               0      0.00%     10.31% # attempts to use FU when none available (Count)
system.cpu0.statFuBusy::SimdReduceCmp               0      0.00%     10.31% # attempts to use FU when none available (Count)
system.cpu0.statFuBusy::SimdFloatReduceAdd            0      0.00%     10.31% # attempts to use FU when none available (Count)
system.cpu0.statFuBusy::SimdFloatReduceCmp            0      0.00%     10.31% # attempts to use FU when none available (Count)
system.cpu0.statFuBusy::SimdAes                     0      0.00%     10.31% # attempts to use FU when none available (Count)
system.cpu0.statFuBusy::SimdAesMix                  0      0.00%     10.31% # attempts to use FU when none available (Count)
system.cpu0.statFuBusy::SimdSha1Hash                0      0.00%     10.31% # attempts to use FU when none available (Count)
system.cpu0.statFuBusy::SimdSha1Hash2               0      0.00%     10.31% # attempts to use FU when none available (Count)
system.cpu0.statFuBusy::SimdSha256Hash              0      0.00%     10.31% # attempts to use FU when none available (Count)
system.cpu0.statFuBusy::SimdSha256Hash2             0      0.00%     10.31% # attempts to use FU when none available (Count)
system.cpu0.statFuBusy::SimdShaSigma2               0      0.00%     10.31% # attempts to use FU when none available (Count)
system.cpu0.statFuBusy::SimdShaSigma3               0      0.00%     10.31% # attempts to use FU when none available (Count)
system.cpu0.statFuBusy::SimdPredAlu                 0      0.00%     10.31% # attempts to use FU when none available (Count)
system.cpu0.statFuBusy::MemRead                751553      9.62%     19.94% # attempts to use FU when none available (Count)
system.cpu0.statFuBusy::MemWrite              1750914     22.42%     42.35% # attempts to use FU when none available (Count)
system.cpu0.statFuBusy::FloatMemRead          3877734     49.64%     92.00% # attempts to use FU when none available (Count)
system.cpu0.statFuBusy::FloatMemWrite          625223      8.00%    100.00% # attempts to use FU when none available (Count)
system.cpu0.statFuBusy::IprAccess                   0      0.00%    100.00% # attempts to use FU when none available (Count)
system.cpu0.statFuBusy::InstPrefetch                0      0.00%    100.00% # attempts to use FU when none available (Count)
system.cpu0.statIssuedInstType_0::No_OpClass      5515232      4.70%      4.70% # Number of instructions issued per FU type, per thread (Count)
system.cpu0.statIssuedInstType_0::IntAlu     47317135     40.34%     45.04% # Number of instructions issued per FU type, per thread (Count)
system.cpu0.statIssuedInstType_0::IntMult          281      0.00%     45.04% # Number of instructions issued per FU type, per thread (Count)
system.cpu0.statIssuedInstType_0::IntDiv         3072      0.00%     45.04% # Number of instructions issued per FU type, per thread (Count)
system.cpu0.statIssuedInstType_0::FloatAdd      4255856      3.63%     48.67% # Number of instructions issued per FU type, per thread (Count)
system.cpu0.statIssuedInstType_0::FloatCmp            0      0.00%     48.67% # Number of instructions issued per FU type, per thread (Count)
system.cpu0.statIssuedInstType_0::FloatCvt          514      0.00%     48.67% # Number of instructions issued per FU type, per thread (Count)
system.cpu0.statIssuedInstType_0::FloatMult            0      0.00%     48.67% # Number of instructions issued per FU type, per thread (Count)
system.cpu0.statIssuedInstType_0::FloatMultAcc            0      0.00%     48.67% # Number of instructions issued per FU type, per thread (Count)
system.cpu0.statIssuedInstType_0::FloatDiv            0      0.00%     48.67% # Number of instructions issued per FU type, per thread (Count)
system.cpu0.statIssuedInstType_0::FloatMisc            0      0.00%     48.67% # Number of instructions issued per FU type, per thread (Count)
system.cpu0.statIssuedInstType_0::FloatSqrt            0      0.00%     48.67% # Number of instructions issued per FU type, per thread (Count)
system.cpu0.statIssuedInstType_0::SimdAdd         2684      0.00%     48.68% # Number of instructions issued per FU type, per thread (Count)
system.cpu0.statIssuedInstType_0::SimdAddAcc            0      0.00%     48.68% # Number of instructions issued per FU type, per thread (Count)
system.cpu0.statIssuedInstType_0::SimdAlu        32717      0.03%     48.70% # Number of instructions issued per FU type, per thread (Count)
system.cpu0.statIssuedInstType_0::SimdCmp           68      0.00%     48.70% # Number of instructions issued per FU type, per thread (Count)
system.cpu0.statIssuedInstType_0::SimdCvt         6180      0.01%     48.71% # Number of instructions issued per FU type, per thread (Count)
system.cpu0.statIssuedInstType_0::SimdMisc         4080      0.00%     48.71% # Number of instructions issued per FU type, per thread (Count)
system.cpu0.statIssuedInstType_0::SimdMult            0      0.00%     48.71% # Number of instructions issued per FU type, per thread (Count)
system.cpu0.statIssuedInstType_0::SimdMultAcc            0      0.00%     48.71% # Number of instructions issued per FU type, per thread (Count)
system.cpu0.statIssuedInstType_0::SimdShift         1505      0.00%     48.71% # Number of instructions issued per FU type, per thread (Count)
system.cpu0.statIssuedInstType_0::SimdShiftAcc            0      0.00%     48.71% # Number of instructions issued per FU type, per thread (Count)
system.cpu0.statIssuedInstType_0::SimdDiv            0      0.00%     48.71% # Number of instructions issued per FU type, per thread (Count)
system.cpu0.statIssuedInstType_0::SimdSqrt            0      0.00%     48.71% # Number of instructions issued per FU type, per thread (Count)
system.cpu0.statIssuedInstType_0::SimdFloatAdd      8259208      7.04%     55.75% # Number of instructions issued per FU type, per thread (Count)
system.cpu0.statIssuedInstType_0::SimdFloatAlu            0      0.00%     55.75% # Number of instructions issued per FU type, per thread (Count)
system.cpu0.statIssuedInstType_0::SimdFloatCmp           24      0.00%     55.75% # Number of instructions issued per FU type, per thread (Count)
system.cpu0.statIssuedInstType_0::SimdFloatCvt      3018028      2.57%     58.33% # Number of instructions issued per FU type, per thread (Count)
system.cpu0.statIssuedInstType_0::SimdFloatDiv           18      0.00%     58.33% # Number of instructions issued per FU type, per thread (Count)
system.cpu0.statIssuedInstType_0::SimdFloatMisc            0      0.00%     58.33% # Number of instructions issued per FU type, per thread (Count)
system.cpu0.statIssuedInstType_0::SimdFloatMult      2006613      1.71%     60.04% # Number of instructions issued per FU type, per thread (Count)
system.cpu0.statIssuedInstType_0::SimdFloatMultAcc            0      0.00%     60.04% # Number of instructions issued per FU type, per thread (Count)
system.cpu0.statIssuedInstType_0::SimdFloatSqrt            0      0.00%     60.04% # Number of instructions issued per FU type, per thread (Count)
system.cpu0.statIssuedInstType_0::SimdReduceAdd            0      0.00%     60.04% # Number of instructions issued per FU type, per thread (Count)
system.cpu0.statIssuedInstType_0::SimdReduceAlu            0      0.00%     60.04% # Number of instructions issued per FU type, per thread (Count)
system.cpu0.statIssuedInstType_0::SimdReduceCmp            0      0.00%     60.04% # Number of instructions issued per FU type, per thread (Count)
system.cpu0.statIssuedInstType_0::SimdFloatReduceAdd            0      0.00%     60.04% # Number of instructions issued per FU type, per thread (Count)
system.cpu0.statIssuedInstType_0::SimdFloatReduceCmp            0      0.00%     60.04% # Number of instructions issued per FU type, per thread (Count)
system.cpu0.statIssuedInstType_0::SimdAes            0      0.00%     60.04% # Number of instructions issued per FU type, per thread (Count)
system.cpu0.statIssuedInstType_0::SimdAesMix            0      0.00%     60.04% # Number of instructions issued per FU type, per thread (Count)
system.cpu0.statIssuedInstType_0::SimdSha1Hash            0      0.00%     60.04% # Number of instructions issued per FU type, per thread (Count)
system.cpu0.statIssuedInstType_0::SimdSha1Hash2            0      0.00%     60.04% # Number of instructions issued per FU type, per thread (Count)
system.cpu0.statIssuedInstType_0::SimdSha256Hash            0      0.00%     60.04% # Number of instructions issued per FU type, per thread (Count)
system.cpu0.statIssuedInstType_0::SimdSha256Hash2            0      0.00%     60.04% # Number of instructions issued per FU type, per thread (Count)
system.cpu0.statIssuedInstType_0::SimdShaSigma2            0      0.00%     60.04% # Number of instructions issued per FU type, per thread (Count)
system.cpu0.statIssuedInstType_0::SimdShaSigma3            0      0.00%     60.04% # Number of instructions issued per FU type, per thread (Count)
system.cpu0.statIssuedInstType_0::SimdPredAlu            0      0.00%     60.04% # Number of instructions issued per FU type, per thread (Count)
system.cpu0.statIssuedInstType_0::MemRead      2931388      2.50%     62.54% # Number of instructions issued per FU type, per thread (Count)
system.cpu0.statIssuedInstType_0::MemWrite      6308611      5.38%     67.92% # Number of instructions issued per FU type, per thread (Count)
system.cpu0.statIssuedInstType_0::FloatMemRead     22379394     19.08%     87.00% # Number of instructions issued per FU type, per thread (Count)
system.cpu0.statIssuedInstType_0::FloatMemWrite     15254154     13.00%    100.00% # Number of instructions issued per FU type, per thread (Count)
system.cpu0.statIssuedInstType_0::IprAccess            0      0.00%    100.00% # Number of instructions issued per FU type, per thread (Count)
system.cpu0.statIssuedInstType_0::InstPrefetch            0      0.00%    100.00% # Number of instructions issued per FU type, per thread (Count)
system.cpu0.statIssuedInstType_0::total     117296762                       # Number of instructions issued per FU type, per thread (Count)
system.cpu0.issueRate                        0.316957                       # Inst issue rate ((Count/Cycle))
system.cpu0.fuBusy                            7811065                       # FU busy when requested (Count)
system.cpu0.fuBusyRate                       0.066592                       # FU busy rate (busy events/executed inst) ((Count/Count))
system.cpu0.intInstQueueReads               488302302                       # Number of integer instruction queue reads (Count)
system.cpu0.intInstQueueWrites               85958713                       # Number of integer instruction queue writes (Count)
system.cpu0.intInstQueueWakeupAccesses       52518901                       # Number of integer instruction queue wakeup accesses (Count)
system.cpu0.fpInstQueueReads                123758459                       # Number of floating instruction queue reads (Count)
system.cpu0.fpInstQueueWrites                79743564                       # Number of floating instruction queue writes (Count)
system.cpu0.fpInstQueueWakeupAccesses        59136181                       # Number of floating instruction queue wakeup accesses (Count)
system.cpu0.vecInstQueueReads                       0                       # Number of vector instruction queue reads (Count)
system.cpu0.vecInstQueueWrites                      0                       # Number of vector instruction queue writes (Count)
system.cpu0.vecInstQueueWakeupAccesses              0                       # Number of vector instruction queue wakeup accesses (Count)
system.cpu0.intAluAccesses                   55067731                       # Number of integer alu accesses (Count)
system.cpu0.fpAluAccesses                    64524864                       # Number of floating point alu accesses (Count)
system.cpu0.vecAluAccesses                          0                       # Number of vector alu accesses (Count)
system.cpu0.numInsts                        117270206                       # Number of executed instructions (Count)
system.cpu0.numLoadInsts                     25304667                       # Number of load instructions executed (Count)
system.cpu0.numSquashedInsts                    26556                       # Number of squashed instructions skipped in execute (Count)
system.cpu0.numSwp                                  0                       # Number of swp insts executed (Count)
system.cpu0.numNop                                  0                       # Number of nop insts executed (Count)
system.cpu0.numRefs                          46866419                       # Number of memory reference insts executed (Count)
system.cpu0.numBranches                       6642392                       # Number of branches executed (Count)
system.cpu0.numStoreInsts                    21561752                       # Number of stores executed (Count)
system.cpu0.numRate                          0.316885                       # Inst execution rate ((Count/Cycle))
system.cpu0.timesIdled                           1753                       # Number of times that the entire CPU went into an idle state and unscheduled itself (Count)
system.cpu0.idleCycles                         417279                       # Total number of cycles that the CPU has spent unscheduled due to idling (Cycle)
system.cpu0.committedInsts                   37822069                       # Number of Instructions Simulated (Count)
system.cpu0.committedOps                     68960879                       # Number of Ops (including micro ops) Simulated (Count)
system.cpu0.cpi                              9.784538                       # CPI: Cycles Per Instruction ((Cycle/Count))
system.cpu0.totalCpi                         9.784538                       # CPI: Total CPI of All Threads ((Cycle/Count))
system.cpu0.ipc                              0.102202                       # IPC: Instructions Per Cycle ((Count/Cycle))
system.cpu0.totalIpc                         0.102202                       # IPC: Total IPC of All Threads ((Count/Cycle))
system.cpu0.intRegfileReads                  90723358                       # Number of integer regfile reads (Count)
system.cpu0.intRegfileWrites                 33216166                       # Number of integer regfile writes (Count)
system.cpu0.fpRegfileReads                   60202059                       # Number of floating regfile reads (Count)
system.cpu0.fpRegfileWrites                  40874485                       # Number of floating regfile writes (Count)
system.cpu0.ccRegfileReads                   39155661                       # number of cc regfile reads (Count)
system.cpu0.ccRegfileWrites                  29072449                       # number of cc regfile writes (Count)
system.cpu0.miscRegfileReads                 60171402                       # number of misc regfile reads (Count)
system.cpu0.miscRegfileWrites                     234                       # number of misc regfile writes (Count)
system.cpu0.MemDepUnit__0.insertedLoads      25228956                       # Number of loads inserted to the mem dependence unit. (Count)
system.cpu0.MemDepUnit__0.insertedStores     21568381                       # Number of stores inserted to the mem dependence unit. (Count)
system.cpu0.MemDepUnit__0.conflictingLoads       254109                       # Number of conflicting loads. (Count)
system.cpu0.MemDepUnit__0.conflictingStores       253233                       # Number of conflicting stores. (Count)
system.cpu0.MemDepUnit__1.insertedLoads             0                       # Number of loads inserted to the mem dependence unit. (Count)
system.cpu0.MemDepUnit__1.insertedStores            0                       # Number of stores inserted to the mem dependence unit. (Count)
system.cpu0.MemDepUnit__1.conflictingLoads            0                       # Number of conflicting loads. (Count)
system.cpu0.MemDepUnit__1.conflictingStores            0                       # Number of conflicting stores. (Count)
system.cpu0.MemDepUnit__2.insertedLoads             0                       # Number of loads inserted to the mem dependence unit. (Count)
system.cpu0.MemDepUnit__2.insertedStores            0                       # Number of stores inserted to the mem dependence unit. (Count)
system.cpu0.MemDepUnit__2.conflictingLoads            0                       # Number of conflicting loads. (Count)
system.cpu0.MemDepUnit__2.conflictingStores            0                       # Number of conflicting stores. (Count)
system.cpu0.MemDepUnit__3.insertedLoads             0                       # Number of loads inserted to the mem dependence unit. (Count)
system.cpu0.MemDepUnit__3.insertedStores            0                       # Number of stores inserted to the mem dependence unit. (Count)
system.cpu0.MemDepUnit__3.conflictingLoads            0                       # Number of conflicting loads. (Count)
system.cpu0.MemDepUnit__3.conflictingStores            0                       # Number of conflicting stores. (Count)
system.cpu0.branchPred.lookups                7445491                       # Number of BP lookups (Count)
system.cpu0.branchPred.condPredicted          7393913                       # Number of conditional branches predicted (Count)
system.cpu0.branchPred.condIncorrect             8997                       # Number of conditional branches incorrect (Count)
system.cpu0.branchPred.BTBLookups             4317101                       # Number of BTB lookups (Count)
system.cpu0.branchPred.BTBHits                4313337                       # Number of BTB hits (Count)
system.cpu0.branchPred.BTBHitRatio           0.999128                       # BTB Hit Ratio (Ratio)
system.cpu0.branchPred.RASUsed                  19470                       # Number of times the RAS was used to get a target. (Count)
system.cpu0.branchPred.RASIncorrect                10                       # Number of incorrect RAS predictions. (Count)
system.cpu0.branchPred.indirectLookups           9426                       # Number of indirect predictor lookups. (Count)
system.cpu0.branchPred.indirectHits              5661                       # Number of indirect target hits. (Count)
system.cpu0.branchPred.indirectMisses            3765                       # Number of indirect misses. (Count)
system.cpu0.branchPred.indirectMispredicted          809                       # Number of mispredicted indirect branches. (Count)
system.cpu0.commit.commitSquashedInsts       42767232                       # The number of squashed insts skipped by commit (Count)
system.cpu0.commit.commitNonSpecStalls            796                       # The number of times commit has been forced to stall to communicate backwards (Count)
system.cpu0.commit.branchMispredicts             8734                       # The number of times a branch was mispredicted (Count)
system.cpu0.commit.numCommittedDist::samples    363953847                       # Number of insts commited each cycle (Count)
system.cpu0.commit.numCommittedDist::mean     0.189477                       # Number of insts commited each cycle (Count)
system.cpu0.commit.numCommittedDist::stdev     1.072309                       # Number of insts commited each cycle (Count)
system.cpu0.commit.numCommittedDist::underflows            0      0.00%      0.00% # Number of insts commited each cycle (Count)
system.cpu0.commit.numCommittedDist::0      347666149     95.52%     95.52% # Number of insts commited each cycle (Count)
system.cpu0.commit.numCommittedDist::1        4611861      1.27%     96.79% # Number of insts commited each cycle (Count)
system.cpu0.commit.numCommittedDist::2        1758572      0.48%     97.28% # Number of insts commited each cycle (Count)
system.cpu0.commit.numCommittedDist::3        1818084      0.50%     97.77% # Number of insts commited each cycle (Count)
system.cpu0.commit.numCommittedDist::4        2055620      0.56%     98.34% # Number of insts commited each cycle (Count)
system.cpu0.commit.numCommittedDist::5         276261      0.08%     98.42% # Number of insts commited each cycle (Count)
system.cpu0.commit.numCommittedDist::6          56897      0.02%     98.43% # Number of insts commited each cycle (Count)
system.cpu0.commit.numCommittedDist::7         250769      0.07%     98.50% # Number of insts commited each cycle (Count)
system.cpu0.commit.numCommittedDist::8        5459634      1.50%    100.00% # Number of insts commited each cycle (Count)
system.cpu0.commit.numCommittedDist::overflows            0      0.00%    100.00% # Number of insts commited each cycle (Count)
system.cpu0.commit.numCommittedDist::min_value            0                       # Number of insts commited each cycle (Count)
system.cpu0.commit.numCommittedDist::max_value            8                       # Number of insts commited each cycle (Count)
system.cpu0.commit.numCommittedDist::total    363953847                       # Number of insts commited each cycle (Count)
system.cpu0.commit.instsCommitted            37822069                       # Number of instructions committed (Count)
system.cpu0.commit.opsCommitted              68960879                       # Number of ops (including micro ops) committed (Count)
system.cpu0.commit.memRefs                   18180339                       # Number of memory references committed (Count)
system.cpu0.commit.loads                     12634149                       # Number of loads committed (Count)
system.cpu0.commit.amos                             0                       # Number of atomic instructions committed (Count)
system.cpu0.commit.membars                        372                       # Number of memory barriers committed (Count)
system.cpu0.commit.branches                   5351871                       # Number of branches committed (Count)
system.cpu0.commit.vectorInstructions               0                       # Number of committed Vector instructions. (Count)
system.cpu0.commit.floating                  38569016                       # Number of committed floating point instructions. (Count)
system.cpu0.commit.integer                   47391980                       # Number of committed integer instructions. (Count)
system.cpu0.commit.functionCalls                 8083                       # Number of function calls committed. (Count)
system.cpu0.commit.committedInstType_0::No_OpClass         6778      0.01%      0.01% # Class of committed instruction (Count)
system.cpu0.commit.committedInstType_0::IntAlu     33229872     48.19%     48.20% # Class of committed instruction (Count)
system.cpu0.commit.committedInstType_0::IntMult          256      0.00%     48.20% # Class of committed instruction (Count)
system.cpu0.commit.committedInstType_0::IntDiv         2818      0.00%     48.20% # Class of committed instruction (Count)
system.cpu0.commit.committedInstType_0::FloatAdd      4252941      6.17%     54.37% # Class of committed instruction (Count)
system.cpu0.commit.committedInstType_0::FloatCmp            0      0.00%     54.37% # Class of committed instruction (Count)
system.cpu0.commit.committedInstType_0::FloatCvt          416      0.00%     54.37% # Class of committed instruction (Count)
system.cpu0.commit.committedInstType_0::FloatMult            0      0.00%     54.37% # Class of committed instruction (Count)
system.cpu0.commit.committedInstType_0::FloatMultAcc            0      0.00%     54.37% # Class of committed instruction (Count)
system.cpu0.commit.committedInstType_0::FloatDiv            0      0.00%     54.37% # Class of committed instruction (Count)
system.cpu0.commit.committedInstType_0::FloatMisc            0      0.00%     54.37% # Class of committed instruction (Count)
system.cpu0.commit.committedInstType_0::FloatSqrt            0      0.00%     54.37% # Class of committed instruction (Count)
system.cpu0.commit.committedInstType_0::SimdAdd         2098      0.00%     54.37% # Class of committed instruction (Count)
system.cpu0.commit.committedInstType_0::SimdAddAcc            0      0.00%     54.37% # Class of committed instruction (Count)
system.cpu0.commit.committedInstType_0::SimdAlu        12748      0.02%     54.39% # Class of committed instruction (Count)
system.cpu0.commit.committedInstType_0::SimdCmp           66      0.00%     54.39% # Class of committed instruction (Count)
system.cpu0.commit.committedInstType_0::SimdCvt         4504      0.01%     54.40% # Class of committed instruction (Count)
system.cpu0.commit.committedInstType_0::SimdMisc         3427      0.00%     54.40% # Class of committed instruction (Count)
system.cpu0.commit.committedInstType_0::SimdMult            0      0.00%     54.40% # Class of committed instruction (Count)
system.cpu0.commit.committedInstType_0::SimdMultAcc            0      0.00%     54.40% # Class of committed instruction (Count)
system.cpu0.commit.committedInstType_0::SimdShift          727      0.00%     54.40% # Class of committed instruction (Count)
system.cpu0.commit.committedInstType_0::SimdShiftAcc            0      0.00%     54.40% # Class of committed instruction (Count)
system.cpu0.commit.committedInstType_0::SimdDiv            0      0.00%     54.40% # Class of committed instruction (Count)
system.cpu0.commit.committedInstType_0::SimdSqrt            0      0.00%     54.40% # Class of committed instruction (Count)
system.cpu0.commit.committedInstType_0::SimdFloatAdd      8254602     11.97%     66.37% # Class of committed instruction (Count)
system.cpu0.commit.committedInstType_0::SimdFloatAlu            0      0.00%     66.37% # Class of committed instruction (Count)
system.cpu0.commit.committedInstType_0::SimdFloatCmp           24      0.00%     66.37% # Class of committed instruction (Count)
system.cpu0.commit.committedInstType_0::SimdFloatCvt      3006916      4.36%     70.73% # Class of committed instruction (Count)
system.cpu0.commit.committedInstType_0::SimdFloatDiv           15      0.00%     70.73% # Class of committed instruction (Count)
system.cpu0.commit.committedInstType_0::SimdFloatMisc            0      0.00%     70.73% # Class of committed instruction (Count)
system.cpu0.commit.committedInstType_0::SimdFloatMult      2002332      2.90%     73.64% # Class of committed instruction (Count)
system.cpu0.commit.committedInstType_0::SimdFloatMultAcc            0      0.00%     73.64% # Class of committed instruction (Count)
system.cpu0.commit.committedInstType_0::SimdFloatSqrt            0      0.00%     73.64% # Class of committed instruction (Count)
system.cpu0.commit.committedInstType_0::SimdReduceAdd            0      0.00%     73.64% # Class of committed instruction (Count)
system.cpu0.commit.committedInstType_0::SimdReduceAlu            0      0.00%     73.64% # Class of committed instruction (Count)
system.cpu0.commit.committedInstType_0::SimdReduceCmp            0      0.00%     73.64% # Class of committed instruction (Count)
system.cpu0.commit.committedInstType_0::SimdFloatReduceAdd            0      0.00%     73.64% # Class of committed instruction (Count)
system.cpu0.commit.committedInstType_0::SimdFloatReduceCmp            0      0.00%     73.64% # Class of committed instruction (Count)
system.cpu0.commit.committedInstType_0::SimdAes            0      0.00%     73.64% # Class of committed instruction (Count)
system.cpu0.commit.committedInstType_0::SimdAesMix            0      0.00%     73.64% # Class of committed instruction (Count)
system.cpu0.commit.committedInstType_0::SimdSha1Hash            0      0.00%     73.64% # Class of committed instruction (Count)
system.cpu0.commit.committedInstType_0::SimdSha1Hash2            0      0.00%     73.64% # Class of committed instruction (Count)
system.cpu0.commit.committedInstType_0::SimdSha256Hash            0      0.00%     73.64% # Class of committed instruction (Count)
system.cpu0.commit.committedInstType_0::SimdSha256Hash2            0      0.00%     73.64% # Class of committed instruction (Count)
system.cpu0.commit.committedInstType_0::SimdShaSigma2            0      0.00%     73.64% # Class of committed instruction (Count)
system.cpu0.commit.committedInstType_0::SimdShaSigma3            0      0.00%     73.64% # Class of committed instruction (Count)
system.cpu0.commit.committedInstType_0::SimdPredAlu            0      0.00%     73.64% # Class of committed instruction (Count)
system.cpu0.commit.committedInstType_0::MemRead       365808      0.53%     74.17% # Class of committed instruction (Count)
system.cpu0.commit.committedInstType_0::MemWrite       791862      1.15%     75.32% # Class of committed instruction (Count)
system.cpu0.commit.committedInstType_0::FloatMemRead     12268341     17.79%     93.11% # Class of committed instruction (Count)
system.cpu0.commit.committedInstType_0::FloatMemWrite      4754328      6.89%    100.00% # Class of committed instruction (Count)
system.cpu0.commit.committedInstType_0::IprAccess            0      0.00%    100.00% # Class of committed instruction (Count)
system.cpu0.commit.committedInstType_0::InstPrefetch            0      0.00%    100.00% # Class of committed instruction (Count)
system.cpu0.commit.committedInstType_0::total     68960879                       # Class of committed instruction (Count)
system.cpu0.commit.commitEligibleSamples      5459634                       # number cycles where commit BW limit reached (Cycle)
system.cpu0.dcache.demandHits::cpu0.data     20877474                       # number of demand (read+write) hits (Count)
system.cpu0.dcache.demandHits::total         20877474                       # number of demand (read+write) hits (Count)
system.cpu0.dcache.overallHits::cpu0.data     23491377                       # number of overall hits (Count)
system.cpu0.dcache.overallHits::total        23491377                       # number of overall hits (Count)
system.cpu0.dcache.demandMisses::cpu0.data      6611113                       # number of demand (read+write) misses (Count)
system.cpu0.dcache.demandMisses::total        6611113                       # number of demand (read+write) misses (Count)
system.cpu0.dcache.overallMisses::cpu0.data      6747034                       # number of overall misses (Count)
system.cpu0.dcache.overallMisses::total       6747034                       # number of overall misses (Count)
system.cpu0.dcache.demandMissLatency::cpu0.data 358324203237                       # number of demand (read+write) miss ticks (Tick)
system.cpu0.dcache.demandMissLatency::total 358324203237                       # number of demand (read+write) miss ticks (Tick)
system.cpu0.dcache.overallMissLatency::cpu0.data 358324203237                       # number of overall miss ticks (Tick)
system.cpu0.dcache.overallMissLatency::total 358324203237                       # number of overall miss ticks (Tick)
system.cpu0.dcache.demandAccesses::cpu0.data     27488587                       # number of demand (read+write) accesses (Count)
system.cpu0.dcache.demandAccesses::total     27488587                       # number of demand (read+write) accesses (Count)
system.cpu0.dcache.overallAccesses::cpu0.data     30238411                       # number of overall (read+write) accesses (Count)
system.cpu0.dcache.overallAccesses::total     30238411                       # number of overall (read+write) accesses (Count)
system.cpu0.dcache.demandMissRate::cpu0.data     0.240504                       # miss rate for demand accesses (Ratio)
system.cpu0.dcache.demandMissRate::total     0.240504                       # miss rate for demand accesses (Ratio)
system.cpu0.dcache.overallMissRate::cpu0.data     0.223128                       # miss rate for overall accesses (Ratio)
system.cpu0.dcache.overallMissRate::total     0.223128                       # miss rate for overall accesses (Ratio)
system.cpu0.dcache.demandAvgMissLatency::cpu0.data 54200.284163                       # average overall miss latency in ticks ((Tick/Count))
system.cpu0.dcache.demandAvgMissLatency::total 54200.284163                       # average overall miss latency in ticks ((Tick/Count))
system.cpu0.dcache.overallAvgMissLatency::cpu0.data 53108.403372                       # average overall miss latency ((Tick/Count))
system.cpu0.dcache.overallAvgMissLatency::total 53108.403372                       # average overall miss latency ((Tick/Count))
system.cpu0.dcache.blockedCycles::no_mshrs     23033920                       # number of cycles access was blocked (Cycle)
system.cpu0.dcache.blockedCycles::no_targets         5243                       # number of cycles access was blocked (Cycle)
system.cpu0.dcache.blockedCauses::no_mshrs       287238                       # number of times access was blocked (Count)
system.cpu0.dcache.blockedCauses::no_targets           39                       # number of times access was blocked (Count)
system.cpu0.dcache.avgBlocked::no_mshrs     80.191061                       # average number of cycles each access was blocked ((Cycle/Count))
system.cpu0.dcache.avgBlocked::no_targets   134.435897                       # average number of cycles each access was blocked ((Cycle/Count))
system.cpu0.dcache.writebacks::writebacks       627266                       # number of writebacks (Count)
system.cpu0.dcache.writebacks::total           627266                       # number of writebacks (Count)
system.cpu0.dcache.demandMshrHits::cpu0.data      4980204                       # number of demand (read+write) MSHR hits (Count)
system.cpu0.dcache.demandMshrHits::total      4980204                       # number of demand (read+write) MSHR hits (Count)
system.cpu0.dcache.overallMshrHits::cpu0.data      4980204                       # number of overall MSHR hits (Count)
system.cpu0.dcache.overallMshrHits::total      4980204                       # number of overall MSHR hits (Count)
system.cpu0.dcache.demandMshrMisses::cpu0.data      1630909                       # number of demand (read+write) MSHR misses (Count)
system.cpu0.dcache.demandMshrMisses::total      1630909                       # number of demand (read+write) MSHR misses (Count)
system.cpu0.dcache.overallMshrMisses::cpu0.data      1755904                       # number of overall MSHR misses (Count)
system.cpu0.dcache.overallMshrMisses::total      1755904                       # number of overall MSHR misses (Count)
system.cpu0.dcache.demandMshrMissLatency::cpu0.data 189542669488                       # number of demand (read+write) MSHR miss ticks (Tick)
system.cpu0.dcache.demandMshrMissLatency::total 189542669488                       # number of demand (read+write) MSHR miss ticks (Tick)
system.cpu0.dcache.overallMshrMissLatency::cpu0.data 202277778738                       # number of overall MSHR miss ticks (Tick)
system.cpu0.dcache.overallMshrMissLatency::total 202277778738                       # number of overall MSHR miss ticks (Tick)
system.cpu0.dcache.demandMshrMissRate::cpu0.data     0.059330                       # mshr miss ratio for demand accesses (Ratio)
system.cpu0.dcache.demandMshrMissRate::total     0.059330                       # mshr miss ratio for demand accesses (Ratio)
system.cpu0.dcache.overallMshrMissRate::cpu0.data     0.058069                       # mshr miss ratio for overall accesses (Ratio)
system.cpu0.dcache.overallMshrMissRate::total     0.058069                       # mshr miss ratio for overall accesses (Ratio)
system.cpu0.dcache.demandAvgMshrMissLatency::cpu0.data 116219.034592                       # average overall mshr miss latency ((Tick/Count))
system.cpu0.dcache.demandAvgMshrMissLatency::total 116219.034592                       # average overall mshr miss latency ((Tick/Count))
system.cpu0.dcache.overallAvgMshrMissLatency::cpu0.data 115198.654789                       # average overall mshr miss latency ((Tick/Count))
system.cpu0.dcache.overallAvgMshrMissLatency::total 115198.654789                       # average overall mshr miss latency ((Tick/Count))
system.cpu0.dcache.replacements               1754709                       # number of replacements (Count)
system.cpu0.dcache.LockedRMWReadReq.hits::cpu0.data          143                       # number of LockedRMWReadReq hits (Count)
system.cpu0.dcache.LockedRMWReadReq.hits::total          143                       # number of LockedRMWReadReq hits (Count)
system.cpu0.dcache.LockedRMWReadReq.misses::cpu0.data           43                       # number of LockedRMWReadReq misses (Count)
system.cpu0.dcache.LockedRMWReadReq.misses::total           43                       # number of LockedRMWReadReq misses (Count)
system.cpu0.dcache.LockedRMWReadReq.missLatency::cpu0.data       339250                       # number of LockedRMWReadReq miss ticks (Tick)
system.cpu0.dcache.LockedRMWReadReq.missLatency::total       339250                       # number of LockedRMWReadReq miss ticks (Tick)
system.cpu0.dcache.LockedRMWReadReq.accesses::cpu0.data          186                       # number of LockedRMWReadReq accesses(hits+misses) (Count)
system.cpu0.dcache.LockedRMWReadReq.accesses::total          186                       # number of LockedRMWReadReq accesses(hits+misses) (Count)
system.cpu0.dcache.LockedRMWReadReq.missRate::cpu0.data     0.231183                       # miss rate for LockedRMWReadReq accesses (Ratio)
system.cpu0.dcache.LockedRMWReadReq.missRate::total     0.231183                       # miss rate for LockedRMWReadReq accesses (Ratio)
system.cpu0.dcache.LockedRMWReadReq.avgMissLatency::cpu0.data  7889.534884                       # average LockedRMWReadReq miss latency ((Tick/Count))
system.cpu0.dcache.LockedRMWReadReq.avgMissLatency::total  7889.534884                       # average LockedRMWReadReq miss latency ((Tick/Count))
system.cpu0.dcache.LockedRMWReadReq.mshrMisses::cpu0.data           43                       # number of LockedRMWReadReq MSHR misses (Count)
system.cpu0.dcache.LockedRMWReadReq.mshrMisses::total           43                       # number of LockedRMWReadReq MSHR misses (Count)
system.cpu0.dcache.LockedRMWReadReq.mshrMissLatency::cpu0.data      1076750                       # number of LockedRMWReadReq MSHR miss ticks (Tick)
system.cpu0.dcache.LockedRMWReadReq.mshrMissLatency::total      1076750                       # number of LockedRMWReadReq MSHR miss ticks (Tick)
system.cpu0.dcache.LockedRMWReadReq.mshrMissRate::cpu0.data     0.231183                       # mshr miss rate for LockedRMWReadReq accesses (Ratio)
system.cpu0.dcache.LockedRMWReadReq.mshrMissRate::total     0.231183                       # mshr miss rate for LockedRMWReadReq accesses (Ratio)
system.cpu0.dcache.LockedRMWReadReq.avgMshrMissLatency::cpu0.data 25040.697674                       # average LockedRMWReadReq mshr miss latency ((Tick/Count))
system.cpu0.dcache.LockedRMWReadReq.avgMshrMissLatency::total 25040.697674                       # average LockedRMWReadReq mshr miss latency ((Tick/Count))
system.cpu0.dcache.LockedRMWWriteReq.hits::cpu0.data          186                       # number of LockedRMWWriteReq hits (Count)
system.cpu0.dcache.LockedRMWWriteReq.hits::total          186                       # number of LockedRMWWriteReq hits (Count)
system.cpu0.dcache.LockedRMWWriteReq.accesses::cpu0.data          186                       # number of LockedRMWWriteReq accesses(hits+misses) (Count)
system.cpu0.dcache.LockedRMWWriteReq.accesses::total          186                       # number of LockedRMWWriteReq accesses(hits+misses) (Count)
system.cpu0.dcache.ReadReq.hits::cpu0.data     16426774                       # number of ReadReq hits (Count)
system.cpu0.dcache.ReadReq.hits::total       16426774                       # number of ReadReq hits (Count)
system.cpu0.dcache.ReadReq.misses::cpu0.data      6015772                       # number of ReadReq misses (Count)
system.cpu0.dcache.ReadReq.misses::total      6015772                       # number of ReadReq misses (Count)
system.cpu0.dcache.ReadReq.missLatency::cpu0.data 288777212250                       # number of ReadReq miss ticks (Tick)
system.cpu0.dcache.ReadReq.missLatency::total 288777212250                       # number of ReadReq miss ticks (Tick)
system.cpu0.dcache.ReadReq.accesses::cpu0.data     22442546                       # number of ReadReq accesses(hits+misses) (Count)
system.cpu0.dcache.ReadReq.accesses::total     22442546                       # number of ReadReq accesses(hits+misses) (Count)
system.cpu0.dcache.ReadReq.missRate::cpu0.data     0.268052                       # miss rate for ReadReq accesses (Ratio)
system.cpu0.dcache.ReadReq.missRate::total     0.268052                       # miss rate for ReadReq accesses (Ratio)
system.cpu0.dcache.ReadReq.avgMissLatency::cpu0.data 48003.350567                       # average ReadReq miss latency ((Tick/Count))
system.cpu0.dcache.ReadReq.avgMissLatency::total 48003.350567                       # average ReadReq miss latency ((Tick/Count))
system.cpu0.dcache.ReadReq.mshrHits::cpu0.data      4980192                       # number of ReadReq MSHR hits (Count)
system.cpu0.dcache.ReadReq.mshrHits::total      4980192                       # number of ReadReq MSHR hits (Count)
system.cpu0.dcache.ReadReq.mshrMisses::cpu0.data      1035580                       # number of ReadReq MSHR misses (Count)
system.cpu0.dcache.ReadReq.mshrMisses::total      1035580                       # number of ReadReq MSHR misses (Count)
system.cpu0.dcache.ReadReq.mshrMissLatency::cpu0.data 120293982500                       # number of ReadReq MSHR miss ticks (Tick)
system.cpu0.dcache.ReadReq.mshrMissLatency::total 120293982500                       # number of ReadReq MSHR miss ticks (Tick)
system.cpu0.dcache.ReadReq.mshrMissRate::cpu0.data     0.046144                       # mshr miss rate for ReadReq accesses (Ratio)
system.cpu0.dcache.ReadReq.mshrMissRate::total     0.046144                       # mshr miss rate for ReadReq accesses (Ratio)
system.cpu0.dcache.ReadReq.avgMshrMissLatency::cpu0.data 116160.975009                       # average ReadReq mshr miss latency ((Tick/Count))
system.cpu0.dcache.ReadReq.avgMshrMissLatency::total 116160.975009                       # average ReadReq mshr miss latency ((Tick/Count))
system.cpu0.dcache.SoftPFReq.hits::cpu0.data      2613903                       # number of SoftPFReq hits (Count)
system.cpu0.dcache.SoftPFReq.hits::total      2613903                       # number of SoftPFReq hits (Count)
system.cpu0.dcache.SoftPFReq.misses::cpu0.data       135921                       # number of SoftPFReq misses (Count)
system.cpu0.dcache.SoftPFReq.misses::total       135921                       # number of SoftPFReq misses (Count)
system.cpu0.dcache.SoftPFReq.accesses::cpu0.data      2749824                       # number of SoftPFReq accesses(hits+misses) (Count)
system.cpu0.dcache.SoftPFReq.accesses::total      2749824                       # number of SoftPFReq accesses(hits+misses) (Count)
system.cpu0.dcache.SoftPFReq.missRate::cpu0.data     0.049429                       # miss rate for SoftPFReq accesses (Ratio)
system.cpu0.dcache.SoftPFReq.missRate::total     0.049429                       # miss rate for SoftPFReq accesses (Ratio)
system.cpu0.dcache.SoftPFReq.mshrMisses::cpu0.data       124995                       # number of SoftPFReq MSHR misses (Count)
system.cpu0.dcache.SoftPFReq.mshrMisses::total       124995                       # number of SoftPFReq MSHR misses (Count)
system.cpu0.dcache.SoftPFReq.mshrMissLatency::cpu0.data  12735109250                       # number of SoftPFReq MSHR miss ticks (Tick)
system.cpu0.dcache.SoftPFReq.mshrMissLatency::total  12735109250                       # number of SoftPFReq MSHR miss ticks (Tick)
system.cpu0.dcache.SoftPFReq.mshrMissRate::cpu0.data     0.045456                       # mshr miss rate for SoftPFReq accesses (Ratio)
system.cpu0.dcache.SoftPFReq.mshrMissRate::total     0.045456                       # mshr miss rate for SoftPFReq accesses (Ratio)
system.cpu0.dcache.SoftPFReq.avgMshrMissLatency::cpu0.data 101884.949398                       # average SoftPFReq mshr miss latency ((Tick/Count))
system.cpu0.dcache.SoftPFReq.avgMshrMissLatency::total 101884.949398                       # average SoftPFReq mshr miss latency ((Tick/Count))
system.cpu0.dcache.WriteReq.hits::cpu0.data      4450700                       # number of WriteReq hits (Count)
system.cpu0.dcache.WriteReq.hits::total       4450700                       # number of WriteReq hits (Count)
system.cpu0.dcache.WriteReq.misses::cpu0.data       595341                       # number of WriteReq misses (Count)
system.cpu0.dcache.WriteReq.misses::total       595341                       # number of WriteReq misses (Count)
system.cpu0.dcache.WriteReq.missLatency::cpu0.data  69546990987                       # number of WriteReq miss ticks (Tick)
system.cpu0.dcache.WriteReq.missLatency::total  69546990987                       # number of WriteReq miss ticks (Tick)
system.cpu0.dcache.WriteReq.accesses::cpu0.data      5046041                       # number of WriteReq accesses(hits+misses) (Count)
system.cpu0.dcache.WriteReq.accesses::total      5046041                       # number of WriteReq accesses(hits+misses) (Count)
system.cpu0.dcache.WriteReq.missRate::cpu0.data     0.117982                       # miss rate for WriteReq accesses (Ratio)
system.cpu0.dcache.WriteReq.missRate::total     0.117982                       # miss rate for WriteReq accesses (Ratio)
system.cpu0.dcache.WriteReq.avgMissLatency::cpu0.data 116818.749233                       # average WriteReq miss latency ((Tick/Count))
system.cpu0.dcache.WriteReq.avgMissLatency::total 116818.749233                       # average WriteReq miss latency ((Tick/Count))
system.cpu0.dcache.WriteReq.mshrHits::cpu0.data           12                       # number of WriteReq MSHR hits (Count)
system.cpu0.dcache.WriteReq.mshrHits::total           12                       # number of WriteReq MSHR hits (Count)
system.cpu0.dcache.WriteReq.mshrMisses::cpu0.data       595329                       # number of WriteReq MSHR misses (Count)
system.cpu0.dcache.WriteReq.mshrMisses::total       595329                       # number of WriteReq MSHR misses (Count)
system.cpu0.dcache.WriteReq.mshrMissLatency::cpu0.data  69248686988                       # number of WriteReq MSHR miss ticks (Tick)
system.cpu0.dcache.WriteReq.mshrMissLatency::total  69248686988                       # number of WriteReq MSHR miss ticks (Tick)
system.cpu0.dcache.WriteReq.mshrMissRate::cpu0.data     0.117979                       # mshr miss rate for WriteReq accesses (Ratio)
system.cpu0.dcache.WriteReq.mshrMissRate::total     0.117979                       # mshr miss rate for WriteReq accesses (Ratio)
system.cpu0.dcache.WriteReq.avgMshrMissLatency::cpu0.data 116320.029745                       # average WriteReq mshr miss latency ((Tick/Count))
system.cpu0.dcache.WriteReq.avgMshrMissLatency::total 116320.029745                       # average WriteReq mshr miss latency ((Tick/Count))
system.cpu0.dcache.power_state.pwrStateResidencyTicks::UNDEFINED  92517865750                       # Cumulative time (in ticks) in various power states (Tick)
system.cpu0.dcache.tags.tagsInUse         1023.307228                       # Average ticks per tags in use ((Tick/Count))
system.cpu0.dcache.tags.totalRefs            25247656                       # Total number of references to valid blocks. (Count)
system.cpu0.dcache.tags.sampledRefs           1755864                       # Sample count of references to valid blocks. (Count)
system.cpu0.dcache.tags.avgRefs             14.379050                       # Average number of references to valid blocks. ((Count/Count))
system.cpu0.dcache.tags.warmupTick             170250                       # The tick when the warmup percentage was hit. (Tick)
system.cpu0.dcache.tags.occupancies::cpu0.data  1023.307228                       # Average occupied blocks per tick, per requestor ((Count/Tick))
system.cpu0.dcache.tags.avgOccs::cpu0.data     0.999323                       # Average percentage of cache occupancy ((Ratio/Tick))
system.cpu0.dcache.tags.avgOccs::total       0.999323                       # Average percentage of cache occupancy ((Ratio/Tick))
system.cpu0.dcache.tags.occupanciesTaskId::1024         1024                       # Occupied blocks per task id (Count)
system.cpu0.dcache.tags.ageTaskId_1024::0          128                       # Occupied blocks per task id, per block age (Count)
system.cpu0.dcache.tags.ageTaskId_1024::1          895                       # Occupied blocks per task id, per block age (Count)
system.cpu0.dcache.tags.ageTaskId_1024::4            1                       # Occupied blocks per task id, per block age (Count)
system.cpu0.dcache.tags.ratioOccsTaskId::1024            1                       # Ratio of occupied blocks and all blocks, per task id (Ratio)
system.cpu0.dcache.tags.tagAccesses          62233430                       # Number of tag accesses (Count)
system.cpu0.dcache.tags.dataAccesses         62233430                       # Number of data accesses (Count)
system.cpu0.dcache.tags.power_state.pwrStateResidencyTicks::UNDEFINED  92517865750                       # Cumulative time (in ticks) in various power states (Tick)
system.cpu0.decode.idleCycles                 3845306                       # Number of cycles decode is idle (Cycle)
system.cpu0.decode.blockedCycles            349155458                       # Number of cycles decode is blocked (Cycle)
system.cpu0.decode.runCycles                 12360284                       # Number of cycles decode is running (Cycle)
system.cpu0.decode.unblockCycles              3781503                       # Number of cycles decode is unblocking (Cycle)
system.cpu0.decode.squashCycles                511634                       # Number of cycles decode is squashing (Cycle)
system.cpu0.decode.branchResolved             3809690                       # Number of times decode resolved a branch (Count)
system.cpu0.decode.branchMispred                 1353                       # Number of times decode detected a branch misprediction (Count)
system.cpu0.decode.decodedInsts             122689755                       # Number of instructions handled by decode (Count)
system.cpu0.decode.squashedInsts                 6479                       # Number of squashed instructions handled by decode (Count)
system.cpu0.dtb_walker_cache.blockedCycles::no_mshrs            0                       # number of cycles access was blocked (Cycle)
system.cpu0.dtb_walker_cache.blockedCycles::no_targets            0                       # number of cycles access was blocked (Cycle)
system.cpu0.dtb_walker_cache.blockedCauses::no_mshrs            0                       # number of times access was blocked (Count)
system.cpu0.dtb_walker_cache.blockedCauses::no_targets            0                       # number of times access was blocked (Count)
system.cpu0.dtb_walker_cache.avgBlocked::no_mshrs          nan                       # average number of cycles each access was blocked ((Cycle/Count))
system.cpu0.dtb_walker_cache.avgBlocked::no_targets          nan                       # average number of cycles each access was blocked ((Cycle/Count))
system.cpu0.dtb_walker_cache.replacements            0                       # number of replacements (Count)
system.cpu0.dtb_walker_cache.power_state.pwrStateResidencyTicks::UNDEFINED  92517865750                       # Cumulative time (in ticks) in various power states (Tick)
system.cpu0.dtb_walker_cache.tags.tagsInUse            0                       # Average ticks per tags in use ((Tick/Count))
system.cpu0.dtb_walker_cache.tags.totalRefs            0                       # Total number of references to valid blocks. (Count)
system.cpu0.dtb_walker_cache.tags.sampledRefs            0                       # Sample count of references to valid blocks. (Count)
system.cpu0.dtb_walker_cache.tags.avgRefs          nan                       # Average number of references to valid blocks. ((Count/Count))
system.cpu0.dtb_walker_cache.tags.warmupTick            0                       # The tick when the warmup percentage was hit. (Tick)
system.cpu0.dtb_walker_cache.tags.tagAccesses            0                       # Number of tag accesses (Count)
system.cpu0.dtb_walker_cache.tags.dataAccesses            0                       # Number of data accesses (Count)
system.cpu0.dtb_walker_cache.tags.power_state.pwrStateResidencyTicks::UNDEFINED  92517865750                       # Cumulative time (in ticks) in various power states (Tick)
system.cpu0.fetch.icacheStallCycles           8755129                       # Number of cycles fetch is stalled on an Icache miss (Cycle)
system.cpu0.fetch.insts                      67493266                       # Number of instructions fetch has processed (Count)
system.cpu0.fetch.branches                    7445491                       # Number of branches that fetch encountered (Count)
system.cpu0.fetch.predictedBranches           4338468                       # Number of branches that fetch has predicted taken (Count)
system.cpu0.fetch.cycles                    360377120                       # Number of cycles fetch has run and was not squashing or blocked (Cycle)
system.cpu0.fetch.squashCycles                1025934                       # Number of cycles fetch has spent squashing (Cycle)
system.cpu0.fetch.miscStallCycles                1134                       # Number of cycles fetch has spent waiting on interrupts, or bad addresses, or out of MSHRs (Cycle)
system.cpu0.fetch.pendingTrapStallCycles         7755                       # Number of stall cycles due to pending traps (Cycle)
system.cpu0.fetch.icacheWaitRetryStallCycles           80                       # Number of stall cycles due to full MSHR (Cycle)
system.cpu0.fetch.cacheLines                  8511173                       # Number of cache lines fetched (Count)
system.cpu0.fetch.icacheSquashes                 3347                       # Number of outstanding Icache misses that were squashed (Count)
system.cpu0.fetch.nisnDist::samples         369654185                       # Number of instructions fetched each cycle (Total) (Count)
system.cpu0.fetch.nisnDist::mean             0.385606                       # Number of instructions fetched each cycle (Total) (Count)
system.cpu0.fetch.nisnDist::stdev            1.621046                       # Number of instructions fetched each cycle (Total) (Count)
system.cpu0.fetch.nisnDist::underflows              0      0.00%      0.00% # Number of instructions fetched each cycle (Total) (Count)
system.cpu0.fetch.nisnDist::0               347759239     94.08%     94.08% # Number of instructions fetched each cycle (Total) (Count)
system.cpu0.fetch.nisnDist::1                  509771      0.14%     94.21% # Number of instructions fetched each cycle (Total) (Count)
system.cpu0.fetch.nisnDist::2                 1410663      0.38%     94.60% # Number of instructions fetched each cycle (Total) (Count)
system.cpu0.fetch.nisnDist::3                 1466358      0.40%     94.99% # Number of instructions fetched each cycle (Total) (Count)
system.cpu0.fetch.nisnDist::4                  996934      0.27%     95.26% # Number of instructions fetched each cycle (Total) (Count)
system.cpu0.fetch.nisnDist::5                  639449      0.17%     95.44% # Number of instructions fetched each cycle (Total) (Count)
system.cpu0.fetch.nisnDist::6                 2741186      0.74%     96.18% # Number of instructions fetched each cycle (Total) (Count)
system.cpu0.fetch.nisnDist::7                 1865946      0.50%     96.68% # Number of instructions fetched each cycle (Total) (Count)
system.cpu0.fetch.nisnDist::8                12264639      3.32%    100.00% # Number of instructions fetched each cycle (Total) (Count)
system.cpu0.fetch.nisnDist::overflows               0      0.00%    100.00% # Number of instructions fetched each cycle (Total) (Count)
system.cpu0.fetch.nisnDist::min_value               0                       # Number of instructions fetched each cycle (Total) (Count)
system.cpu0.fetch.nisnDist::max_value               8                       # Number of instructions fetched each cycle (Total) (Count)
system.cpu0.fetch.nisnDist::total           369654185                       # Number of instructions fetched each cycle (Total) (Count)
system.cpu0.fetch.branchRate                 0.020119                       # Number of branch fetches per cycle (Ratio)
system.cpu0.fetch.rate                       0.182379                       # Number of inst fetches per cycle ((Count/Cycle))
system.cpu0.icache.demandHits::cpu0.inst      8507726                       # number of demand (read+write) hits (Count)
system.cpu0.icache.demandHits::total          8507726                       # number of demand (read+write) hits (Count)
system.cpu0.icache.overallHits::cpu0.inst      8507726                       # number of overall hits (Count)
system.cpu0.icache.overallHits::total         8507726                       # number of overall hits (Count)
system.cpu0.icache.demandMisses::cpu0.inst         3447                       # number of demand (read+write) misses (Count)
system.cpu0.icache.demandMisses::total           3447                       # number of demand (read+write) misses (Count)
system.cpu0.icache.overallMisses::cpu0.inst         3447                       # number of overall misses (Count)
system.cpu0.icache.overallMisses::total          3447                       # number of overall misses (Count)
system.cpu0.icache.demandMissLatency::cpu0.inst    234590999                       # number of demand (read+write) miss ticks (Tick)
system.cpu0.icache.demandMissLatency::total    234590999                       # number of demand (read+write) miss ticks (Tick)
system.cpu0.icache.overallMissLatency::cpu0.inst    234590999                       # number of overall miss ticks (Tick)
system.cpu0.icache.overallMissLatency::total    234590999                       # number of overall miss ticks (Tick)
system.cpu0.icache.demandAccesses::cpu0.inst      8511173                       # number of demand (read+write) accesses (Count)
system.cpu0.icache.demandAccesses::total      8511173                       # number of demand (read+write) accesses (Count)
system.cpu0.icache.overallAccesses::cpu0.inst      8511173                       # number of overall (read+write) accesses (Count)
system.cpu0.icache.overallAccesses::total      8511173                       # number of overall (read+write) accesses (Count)
system.cpu0.icache.demandMissRate::cpu0.inst     0.000405                       # miss rate for demand accesses (Ratio)
system.cpu0.icache.demandMissRate::total     0.000405                       # miss rate for demand accesses (Ratio)
system.cpu0.icache.overallMissRate::cpu0.inst     0.000405                       # miss rate for overall accesses (Ratio)
system.cpu0.icache.overallMissRate::total     0.000405                       # miss rate for overall accesses (Ratio)
system.cpu0.icache.demandAvgMissLatency::cpu0.inst 68056.570641                       # average overall miss latency in ticks ((Tick/Count))
system.cpu0.icache.demandAvgMissLatency::total 68056.570641                       # average overall miss latency in ticks ((Tick/Count))
system.cpu0.icache.overallAvgMissLatency::cpu0.inst 68056.570641                       # average overall miss latency ((Tick/Count))
system.cpu0.icache.overallAvgMissLatency::total 68056.570641                       # average overall miss latency ((Tick/Count))
system.cpu0.icache.blockedCycles::no_mshrs         1044                       # number of cycles access was blocked (Cycle)
system.cpu0.icache.blockedCycles::no_targets            0                       # number of cycles access was blocked (Cycle)
system.cpu0.icache.blockedCauses::no_mshrs           17                       # number of times access was blocked (Count)
system.cpu0.icache.blockedCauses::no_targets            0                       # number of times access was blocked (Count)
system.cpu0.icache.avgBlocked::no_mshrs     61.411765                       # average number of cycles each access was blocked ((Cycle/Count))
system.cpu0.icache.avgBlocked::no_targets          nan                       # average number of cycles each access was blocked ((Cycle/Count))
system.cpu0.icache.writebacks::writebacks         2194                       # number of writebacks (Count)
system.cpu0.icache.writebacks::total             2194                       # number of writebacks (Count)
system.cpu0.icache.demandMshrHits::cpu0.inst          730                       # number of demand (read+write) MSHR hits (Count)
system.cpu0.icache.demandMshrHits::total          730                       # number of demand (read+write) MSHR hits (Count)
system.cpu0.icache.overallMshrHits::cpu0.inst          730                       # number of overall MSHR hits (Count)
system.cpu0.icache.overallMshrHits::total          730                       # number of overall MSHR hits (Count)
system.cpu0.icache.demandMshrMisses::cpu0.inst         2717                       # number of demand (read+write) MSHR misses (Count)
system.cpu0.icache.demandMshrMisses::total         2717                       # number of demand (read+write) MSHR misses (Count)
system.cpu0.icache.overallMshrMisses::cpu0.inst         2717                       # number of overall MSHR misses (Count)
system.cpu0.icache.overallMshrMisses::total         2717                       # number of overall MSHR misses (Count)
system.cpu0.icache.demandMshrMissLatency::cpu0.inst    185713000                       # number of demand (read+write) MSHR miss ticks (Tick)
system.cpu0.icache.demandMshrMissLatency::total    185713000                       # number of demand (read+write) MSHR miss ticks (Tick)
system.cpu0.icache.overallMshrMissLatency::cpu0.inst    185713000                       # number of overall MSHR miss ticks (Tick)
system.cpu0.icache.overallMshrMissLatency::total    185713000                       # number of overall MSHR miss ticks (Tick)
system.cpu0.icache.demandMshrMissRate::cpu0.inst     0.000319                       # mshr miss ratio for demand accesses (Ratio)
system.cpu0.icache.demandMshrMissRate::total     0.000319                       # mshr miss ratio for demand accesses (Ratio)
system.cpu0.icache.overallMshrMissRate::cpu0.inst     0.000319                       # mshr miss ratio for overall accesses (Ratio)
system.cpu0.icache.overallMshrMissRate::total     0.000319                       # mshr miss ratio for overall accesses (Ratio)
system.cpu0.icache.demandAvgMshrMissLatency::cpu0.inst 68352.226721                       # average overall mshr miss latency ((Tick/Count))
system.cpu0.icache.demandAvgMshrMissLatency::total 68352.226721                       # average overall mshr miss latency ((Tick/Count))
system.cpu0.icache.overallAvgMshrMissLatency::cpu0.inst 68352.226721                       # average overall mshr miss latency ((Tick/Count))
system.cpu0.icache.overallAvgMshrMissLatency::total 68352.226721                       # average overall mshr miss latency ((Tick/Count))
system.cpu0.icache.replacements                  2194                       # number of replacements (Count)
system.cpu0.icache.ReadReq.hits::cpu0.inst      8507726                       # number of ReadReq hits (Count)
system.cpu0.icache.ReadReq.hits::total        8507726                       # number of ReadReq hits (Count)
system.cpu0.icache.ReadReq.misses::cpu0.inst         3447                       # number of ReadReq misses (Count)
system.cpu0.icache.ReadReq.misses::total         3447                       # number of ReadReq misses (Count)
system.cpu0.icache.ReadReq.missLatency::cpu0.inst    234590999                       # number of ReadReq miss ticks (Tick)
system.cpu0.icache.ReadReq.missLatency::total    234590999                       # number of ReadReq miss ticks (Tick)
system.cpu0.icache.ReadReq.accesses::cpu0.inst      8511173                       # number of ReadReq accesses(hits+misses) (Count)
system.cpu0.icache.ReadReq.accesses::total      8511173                       # number of ReadReq accesses(hits+misses) (Count)
system.cpu0.icache.ReadReq.missRate::cpu0.inst     0.000405                       # miss rate for ReadReq accesses (Ratio)
system.cpu0.icache.ReadReq.missRate::total     0.000405                       # miss rate for ReadReq accesses (Ratio)
system.cpu0.icache.ReadReq.avgMissLatency::cpu0.inst 68056.570641                       # average ReadReq miss latency ((Tick/Count))
system.cpu0.icache.ReadReq.avgMissLatency::total 68056.570641                       # average ReadReq miss latency ((Tick/Count))
system.cpu0.icache.ReadReq.mshrHits::cpu0.inst          730                       # number of ReadReq MSHR hits (Count)
system.cpu0.icache.ReadReq.mshrHits::total          730                       # number of ReadReq MSHR hits (Count)
system.cpu0.icache.ReadReq.mshrMisses::cpu0.inst         2717                       # number of ReadReq MSHR misses (Count)
system.cpu0.icache.ReadReq.mshrMisses::total         2717                       # number of ReadReq MSHR misses (Count)
system.cpu0.icache.ReadReq.mshrMissLatency::cpu0.inst    185713000                       # number of ReadReq MSHR miss ticks (Tick)
system.cpu0.icache.ReadReq.mshrMissLatency::total    185713000                       # number of ReadReq MSHR miss ticks (Tick)
system.cpu0.icache.ReadReq.mshrMissRate::cpu0.inst     0.000319                       # mshr miss rate for ReadReq accesses (Ratio)
system.cpu0.icache.ReadReq.mshrMissRate::total     0.000319                       # mshr miss rate for ReadReq accesses (Ratio)
system.cpu0.icache.ReadReq.avgMshrMissLatency::cpu0.inst 68352.226721                       # average ReadReq mshr miss latency ((Tick/Count))
system.cpu0.icache.ReadReq.avgMshrMissLatency::total 68352.226721                       # average ReadReq mshr miss latency ((Tick/Count))
system.cpu0.icache.power_state.pwrStateResidencyTicks::UNDEFINED  92517865750                       # Cumulative time (in ticks) in various power states (Tick)
system.cpu0.icache.tags.tagsInUse          509.297698                       # Average ticks per tags in use ((Tick/Count))
system.cpu0.icache.tags.totalRefs             8510442                       # Total number of references to valid blocks. (Count)
system.cpu0.icache.tags.sampledRefs              2716                       # Sample count of references to valid blocks. (Count)
system.cpu0.icache.tags.avgRefs           3133.446981                       # Average number of references to valid blocks. ((Count/Count))
system.cpu0.icache.tags.warmupTick              85250                       # The tick when the warmup percentage was hit. (Tick)
system.cpu0.icache.tags.occupancies::cpu0.inst   509.297698                       # Average occupied blocks per tick, per requestor ((Count/Tick))
system.cpu0.icache.tags.avgOccs::cpu0.inst     0.994722                       # Average percentage of cache occupancy ((Ratio/Tick))
system.cpu0.icache.tags.avgOccs::total       0.994722                       # Average percentage of cache occupancy ((Ratio/Tick))
system.cpu0.icache.tags.occupanciesTaskId::1024          512                       # Occupied blocks per task id (Count)
system.cpu0.icache.tags.ageTaskId_1024::0           99                       # Occupied blocks per task id, per block age (Count)
system.cpu0.icache.tags.ageTaskId_1024::1           78                       # Occupied blocks per task id, per block age (Count)
system.cpu0.icache.tags.ageTaskId_1024::4          335                       # Occupied blocks per task id, per block age (Count)
system.cpu0.icache.tags.ratioOccsTaskId::1024            1                       # Ratio of occupied blocks and all blocks, per task id (Ratio)
system.cpu0.icache.tags.tagAccesses          17025062                       # Number of tag accesses (Count)
system.cpu0.icache.tags.dataAccesses         17025062                       # Number of data accesses (Count)
system.cpu0.icache.tags.power_state.pwrStateResidencyTicks::UNDEFINED  92517865750                       # Cumulative time (in ticks) in various power states (Tick)
system.cpu0.iew.idleCycles                          0                       # Number of cycles IEW is idle (Cycle)
system.cpu0.iew.squashCycles                   511634                       # Number of cycles IEW is squashing (Cycle)
system.cpu0.iew.blockCycles                  40649852                       # Number of cycles IEW is blocking (Cycle)
system.cpu0.iew.unblockCycles                29491549                       # Number of cycles IEW is unblocking (Cycle)
system.cpu0.iew.dispatchedInsts             117331413                       # Number of instructions dispatched to IQ (Count)
system.cpu0.iew.dispSquashedInsts                1088                       # Number of squashed instructions skipped by dispatch (Count)
system.cpu0.iew.dispLoadInsts                25228956                       # Number of dispatched load instructions (Count)
system.cpu0.iew.dispStoreInsts               21568381                       # Number of dispatched store instructions (Count)
system.cpu0.iew.dispNonSpecInsts                  549                       # Number of dispatched non-speculative instructions (Count)
system.cpu0.iew.iqFullEvents                     2456                       # Number of times the IQ has become full, causing a stall (Count)
system.cpu0.iew.lsqFullEvents                29470449                       # Number of times the LSQ has become full, causing a stall (Count)
system.cpu0.iew.memOrderViolationEvents           351                       # Number of memory order violations (Count)
system.cpu0.iew.predictedTakenIncorrect          2767                       # Number of branches that were predicted taken incorrectly (Count)
system.cpu0.iew.predictedNotTakenIncorrect         7459                       # Number of branches that were predicted not taken incorrectly (Count)
system.cpu0.iew.branchMispredicts               10226                       # Number of branch mispredicts detected at execute (Count)
system.cpu0.iew.instsToCommit               117168914                       # Cumulative count of insts sent to commit (Count)
[...]
system.mem_ctrls.dram.bytesPerActivate::256-319       233157      3.44%     99.13% # Bytes accessed per row activation (Byte)
system.mem_ctrls.dram.bytesPerActivate::320-383        37057      0.55%     99.68% # Bytes accessed per row activation (Byte)
system.mem_ctrls.dram.bytesPerActivate::384-447         8902      0.13%     99.81% # Bytes accessed per row activation (Byte)
system.mem_ctrls.dram.bytesPerActivate::448-511         6323      0.09%     99.90% # Bytes accessed per row activation (Byte)
system.mem_ctrls.dram.bytesPerActivate::512-575         6788      0.10%    100.00% # Bytes accessed per row activation (Byte)
system.mem_ctrls.dram.bytesPerActivate::total      6784015                       # Bytes accessed per row activation (Byte)
system.mem_ctrls.dram.bytesRead             376429984                       # Total bytes read (Byte)
system.mem_ctrls.dram.bytesWritten          160096800                       # Total bytes written (Byte)
system.mem_ctrls.dram.avgRdBW             4068.727493                       # Average DRAM read bandwidth in MiBytes/s ((Byte/Second))
system.mem_ctrls.dram.avgWrBW             1730.441993                       # Average DRAM write bandwidth in MiBytes/s ((Byte/Second))
system.mem_ctrls.dram.peakBW                 16000.00                       # Theoretical peak bandwidth in MiByte/s ((Byte/Second))
system.mem_ctrls.dram.busUtil                   36.24                       # Data bus utilization in percentage (Ratio)
system.mem_ctrls.dram.busUtilRead               25.43                       # Data bus utilization in percentage for reads (Ratio)
system.mem_ctrls.dram.busUtilWrite              10.82                       # Data bus utilization in percentage for writes (Ratio)
system.mem_ctrls.dram.pageHitRate               59.54                       # Row buffer hit rate, read and write combined (Ratio)
system.mem_ctrls.dram.power_state.pwrStateResidencyTicks::UNDEFINED  92517865750                       # Cumulative time (in ticks) in various power states (Tick)
system.mem_ctrls.dram.rank0.actEnergy               0                       # Energy for activate commands per rank (pJ) (Joule)
system.mem_ctrls.dram.rank0.preEnergy               0                       # Energy for precharge commands per rank (pJ) (Joule)
system.mem_ctrls.dram.rank0.readEnergy              0                       # Energy for read commands per rank (pJ) (Joule)
system.mem_ctrls.dram.rank0.writeEnergy             0                       # Energy for write commands per rank (pJ) (Joule)
system.mem_ctrls.dram.rank0.refreshEnergy            0                       # Energy for refresh commands per rank (pJ) (Joule)
system.mem_ctrls.dram.rank0.actBackEnergy            0                       # Energy for active background per rank (pJ) (Joule)
system.mem_ctrls.dram.rank0.preBackEnergy            0                       # Energy for precharge background per rank (pJ) (Joule)
system.mem_ctrls.dram.rank0.actPowerDownEnergy            0                       # Energy for active power-down per rank (pJ) (Joule)
system.mem_ctrls.dram.rank0.prePowerDownEnergy            0                       # Energy for precharge power-down per rank (pJ) (Joule)
system.mem_ctrls.dram.rank0.selfRefreshEnergy            0                       # Energy for self refresh per rank (pJ) (Joule)
system.mem_ctrls.dram.rank0.totalEnergy             0                       # Total energy per rank (pJ) (Joule)
system.mem_ctrls.dram.rank0.averagePower            0                       # Core power per rank (mW) (Watt)
system.mem_ctrls.dram.rank0.totalIdleTime            0                       # Total Idle time Per DRAM Rank (Tick)
system.mem_ctrls.dram.rank0.pwrStateTime::IDLE   8386802250                       # Time in different power states (Tick)
system.mem_ctrls.dram.rank0.pwrStateTime::REF   5237540000                       # Time in different power states (Tick)
system.mem_ctrls.dram.rank0.pwrStateTime::SREF            0                       # Time in different power states (Tick)
system.mem_ctrls.dram.rank0.pwrStateTime::PRE_PDN            0                       # Time in different power states (Tick)
system.mem_ctrls.dram.rank0.pwrStateTime::ACT  78893523500                       # Time in different power states (Tick)
system.mem_ctrls.dram.rank0.pwrStateTime::ACT_PDN            0                       # Time in different power states (Tick)
system.mem_ctrls.power_state.pwrStateResidencyTicks::UNDEFINED  92517865750                       # Cumulative time (in ticks) in various power states (Tick)
system.membus.transDist::ReadResp             3505306                       # Transaction distribution (Count)
system.membus.transDist::WritebackDirty       2501520                       # Transaction distribution (Count)
system.membus.transDist::CleanEvict           3342183                       # Transaction distribution (Count)
system.membus.transDist::UpgradeReq                95                       # Transaction distribution (Count)
system.membus.transDist::ReadExReq            2376418                       # Transaction distribution (Count)
system.membus.transDist::ReadExResp           2376418                       # Transaction distribution (Count)
system.membus.transDist::ReadSharedReq        3505306                       # Transaction distribution (Count)
system.membus.pktCount_system.l2.mem_side_port::system.mem_ctrls.port     17607246                       # Packet count per connected requestor and responder (Count)
system.membus.pktCount_system.l2.mem_side_port::total     17607246                       # Packet count per connected requestor and responder (Count)
system.membus.pktCount::total                17607246                       # Packet count per connected requestor and responder (Count)
system.membus.pktSize_system.l2.mem_side_port::system.mem_ctrls.port    536527616                       # Cumulative packet size per connected requestor and responder (Byte)
system.membus.pktSize_system.l2.mem_side_port::total    536527616                       # Cumulative packet size per connected requestor and responder (Byte)
system.membus.pktSize::total                536527616                       # Cumulative packet size per connected requestor and responder (Byte)
system.membus.snoops                               95                       # Total snoops (Count)
system.membus.snoopTraffic                          0                       # Total snoop traffic (Byte)
system.membus.snoopFanout::samples            5881819                       # Request fanout histogram (Count)
system.membus.snoopFanout::mean                     0                       # Request fanout histogram (Count)
system.membus.snoopFanout::stdev                    0                       # Request fanout histogram (Count)
system.membus.snoopFanout::underflows               0      0.00%      0.00% # Request fanout histogram (Count)
system.membus.snoopFanout::0                  5881819    100.00%    100.00% # Request fanout histogram (Count)
system.membus.snoopFanout::1                        0      0.00%    100.00% # Request fanout histogram (Count)
system.membus.snoopFanout::overflows                0      0.00%    100.00% # Request fanout histogram (Count)
system.membus.snoopFanout::min_value                0                       # Request fanout histogram (Count)
system.membus.snoopFanout::max_value                0                       # Request fanout histogram (Count)
system.membus.snoopFanout::total              5881819                       # Request fanout histogram (Count)
system.membus.power_state.pwrStateResidencyTicks::UNDEFINED  92517865750                       # Cumulative time (in ticks) in various power states (Tick)
system.membus.reqLayer8.occupancy         22394984750                       # Layer occupancy (ticks) (Tick)
system.membus.reqLayer8.utilization               0.2                       # Layer utilization (Ratio)
system.membus.respLayer1.occupancy        29895756250                       # Layer occupancy (ticks) (Tick)
system.membus.respLayer1.utilization              0.3                       # Layer utilization (Ratio)
system.membus.snoop_filter.totRequests       11725538                       # Total number of requests made to the snoop filter. (Count)
system.membus.snoop_filter.hitSingleRequests      5846485                       # Number of requests hitting in the snoop filter with a single holder of the requested data. (Count)
system.membus.snoop_filter.hitMultiRequests            0                       # Number of requests hitting in the snoop filter with multiple (>1) holders of the requested data. (Count)
system.membus.snoop_filter.totSnoops                0                       # Total number of snoops made to the snoop filter. (Count)
system.membus.snoop_filter.hitSingleSnoops            0                       # Number of snoops hitting in the snoop filter with a single holder of the requested data. (Count)
system.membus.snoop_filter.hitMultiSnoops            0                       # Number of snoops hitting in the snoop filter with multiple (>1) holders of the requested data. (Count)
system.tol2bus.transDist::ReadResp            3508470                       # Transaction distribution (Count)
system.tol2bus.transDist::WritebackDirty      5003598                       # Transaction distribution (Count)
system.tol2bus.transDist::WritebackClean         2203                       # Transaction distribution (Count)
system.tol2bus.transDist::CleanEvict          6723284                       # Transaction distribution (Count)
system.tol2bus.transDist::UpgradeReq              175                       # Transaction distribution (Count)
system.tol2bus.transDist::UpgradeResp             175                       # Transaction distribution (Count)
system.tol2bus.transDist::ReadExReq           2376806                       # Transaction distribution (Count)
system.tol2bus.transDist::ReadExResp          2376806                       # Transaction distribution (Count)
system.tol2bus.transDist::ReadCleanReq           3016                       # Transaction distribution (Count)
system.tol2bus.transDist::ReadSharedReq       3505455                       # Transaction distribution (Count)
system.tol2bus.pktCount_system.cpu0.icache.mem_side_port::system.l2.cpu_side_port         7620                       # Packet count per connected requestor and responder (Count)
system.tol2bus.pktCount_system.cpu0.dcache.mem_side_port::system.l2.cpu_side_port      5266059                       # Packet count per connected requestor and responder (Count)
system.tol2bus.pktCount_system.cpu1.icache.mem_side_port::system.l2.cpu_side_port          290                       # Packet count per connected requestor and responder (Count)
system.tol2bus.pktCount_system.cpu1.dcache.mem_side_port::system.l2.cpu_side_port      4125323                       # Packet count per connected requestor and responder (Count)
system.tol2bus.pktCount_system.cpu2.icache.mem_side_port::system.l2.cpu_side_port          154                       # Packet count per connected requestor and responder (Count)
system.tol2bus.pktCount_system.cpu2.dcache.mem_side_port::system.l2.cpu_side_port      4124929                       # Packet count per connected requestor and responder (Count)
system.tol2bus.pktCount_system.cpu3.icache.mem_side_port::system.l2.cpu_side_port          153                       # Packet count per connected requestor and responder (Count)
system.tol2bus.pktCount_system.cpu3.dcache.mem_side_port::system.l2.cpu_side_port      4124931                       # Packet count per connected requestor and responder (Count)
system.tol2bus.pktCount::total               17649459                       # Packet count per connected requestor and responder (Count)
system.tol2bus.pktSize_system.cpu0.icache.mem_side_port::system.l2.cpu_side_port       313792                       # Cumulative packet size per connected requestor and responder (Byte)
system.tol2bus.pktSize_system.cpu0.dcache.mem_side_port::system.l2.cpu_side_port    152487104                       # Cumulative packet size per connected requestor and responder (Byte)
system.tol2bus.pktSize_system.cpu1.icache.mem_side_port::system.l2.cpu_side_port         9280                       # Cumulative packet size per connected requestor and responder (Byte)
system.tol2bus.pktSize_system.cpu1.dcache.mem_side_port::system.l2.cpu_side_port    128018432                       # Cumulative packet size per connected requestor and responder (Byte)
system.tol2bus.pktSize_system.cpu2.icache.mem_side_port::system.l2.cpu_side_port         4992                       # Cumulative packet size per connected requestor and responder (Byte)
system.tol2bus.pktSize_system.cpu2.dcache.mem_side_port::system.l2.cpu_side_port    128009664                       # Cumulative packet size per connected requestor and responder (Byte)
system.tol2bus.pktSize_system.cpu3.icache.mem_side_port::system.l2.cpu_side_port         4800                       # Cumulative packet size per connected requestor and responder (Byte)
system.tol2bus.pktSize_system.cpu3.dcache.mem_side_port::system.l2.cpu_side_port    128009536                       # Cumulative packet size per connected requestor and responder (Byte)
system.tol2bus.pktSize::total               536857600                       # Cumulative packet size per connected requestor and responder (Byte)
system.tol2bus.snoops                         5850529                       # Total snoops (Count)
system.tol2bus.snoopTraffic                 160171328                       # Total snoop traffic (Byte)
system.tol2bus.snoopFanout::samples          11734729                       # Request fanout histogram (Count)
system.tol2bus.snoopFanout::mean             0.001065                       # Request fanout histogram (Count)
system.tol2bus.snoopFanout::stdev            0.038375                       # Request fanout histogram (Count)
system.tol2bus.snoopFanout::underflows              0      0.00%      0.00% # Request fanout histogram (Count)
system.tol2bus.snoopFanout::0                11723894     99.91%     99.91% # Request fanout histogram (Count)
system.tol2bus.snoopFanout::1                    9852      0.08%     99.99% # Request fanout histogram (Count)
system.tol2bus.snoopFanout::2                     372      0.00%     99.99% # Request fanout histogram (Count)
system.tol2bus.snoopFanout::3                     546      0.00%    100.00% # Request fanout histogram (Count)
system.tol2bus.snoopFanout::4                      65      0.00%    100.00% # Request fanout histogram (Count)
system.tol2bus.snoopFanout::5                       0      0.00%    100.00% # Request fanout histogram (Count)
system.tol2bus.snoopFanout::6                       0      0.00%    100.00% # Request fanout histogram (Count)
system.tol2bus.snoopFanout::7                       0      0.00%    100.00% # Request fanout histogram (Count)
system.tol2bus.snoopFanout::8                       0      0.00%    100.00% # Request fanout histogram (Count)
system.tol2bus.snoopFanout::9                       0      0.00%    100.00% # Request fanout histogram (Count)
system.tol2bus.snoopFanout::10                      0      0.00%    100.00% # Request fanout histogram (Count)
system.tol2bus.snoopFanout::11                      0      0.00%    100.00% # Request fanout histogram (Count)
system.tol2bus.snoopFanout::12                      0      0.00%    100.00% # Request fanout histogram (Count)
system.tol2bus.snoopFanout::13                      0      0.00%    100.00% # Request fanout histogram (Count)
system.tol2bus.snoopFanout::14                      0      0.00%    100.00% # Request fanout histogram (Count)
system.tol2bus.snoopFanout::15                      0      0.00%    100.00% # Request fanout histogram (Count)
system.tol2bus.snoopFanout::16                      0      0.00%    100.00% # Request fanout histogram (Count)
system.tol2bus.snoopFanout::overflows               0      0.00%    100.00% # Request fanout histogram (Count)
system.tol2bus.snoopFanout::min_value               0                       # Request fanout histogram (Count)
system.tol2bus.snoopFanout::max_value               4                       # Request fanout histogram (Count)
system.tol2bus.snoopFanout::total            11734729                       # Request fanout histogram (Count)
system.tol2bus.power_state.pwrStateResidencyTicks::UNDEFINED  92517865750                       # Cumulative time (in ticks) in various power states (Tick)
system.tol2bus.reqLayer0.occupancy         4193455500                       # Layer occupancy (ticks) (Tick)
system.tol2bus.reqLayer0.utilization              0.0                       # Layer utilization (Ratio)
system.tol2bus.respLayer0.occupancy           2039481                       # Layer occupancy (ticks) (Tick)
system.tol2bus.respLayer0.utilization             0.0                       # Layer utilization (Ratio)
system.tol2bus.respLayer1.occupancy        1316922228                       # Layer occupancy (ticks) (Tick)
system.tol2bus.respLayer1.utilization             0.0                       # Layer utilization (Ratio)
system.tol2bus.respLayer12.occupancy            64210                       # Layer occupancy (ticks) (Tick)
system.tol2bus.respLayer12.utilization            0.0                       # Layer utilization (Ratio)
system.tol2bus.respLayer13.occupancy       1031582686                       # Layer occupancy (ticks) (Tick)
system.tol2bus.respLayer13.utilization            0.0                       # Layer utilization (Ratio)
system.tol2bus.respLayer4.occupancy            116445                       # Layer occupancy (ticks) (Tick)
system.tol2bus.respLayer4.utilization             0.0                       # Layer utilization (Ratio)
system.tol2bus.respLayer5.occupancy        1031685201                       # Layer occupancy (ticks) (Tick)
system.tol2bus.respLayer5.utilization             0.0                       # Layer utilization (Ratio)
system.tol2bus.respLayer8.occupancy             63459                       # Layer occupancy (ticks) (Tick)
system.tol2bus.respLayer8.utilization             0.0                       # Layer utilization (Ratio)
system.tol2bus.respLayer9.occupancy        1031583934                       # Layer occupancy (ticks) (Tick)
system.tol2bus.respLayer9.utilization             0.0                       # Layer utilization (Ratio)
system.tol2bus.snoop_filter.totRequests      11765260                       # Total number of requests made to the snoop filter. (Count)
system.tol2bus.snoop_filter.hitSingleRequests      5880607                       # Number of requests hitting in the snoop filter with a single holder of the requested data. (Count)
system.tol2bus.snoop_filter.hitMultiRequests         4273                       # Number of requests hitting in the snoop filter with multiple (>1) holders of the requested data. (Count)
system.tol2bus.snoop_filter.totSnoops            5848                       # Total number of snoops made to the snoop filter. (Count)
system.tol2bus.snoop_filter.hitSingleSnoops         5646                       # Number of snoops hitting in the snoop filter with a single holder of the requested data. (Count)
system.tol2bus.snoop_filter.hitMultiSnoops          202                       # Number of snoops hitting in the snoop filter with multiple (>1) holders of the requested data. (Count)
system.voltage_domain.voltage                       1                       # Voltage in Volts (Volt)
system.workload.inst.arm                            0                       # number of arm instructions executed (Count)
system.workload.inst.quiesce                        0                       # number of quiesce instructions executed (Count)

---------- End Simulation Statistics   ----------
