
---------- Begin Simulation Statistics ----------
simSeconds                                   0.040698                       # Number of seconds simulated (Second)
simTicks                                  40698140500                       # Number of ticks simulated (Tick)
finalTick                                 40698140500                       # Number of ticks from beginning of simulation (restored from checkpoints and never reset) (Tick)
simFreq                                  1000000000000                       # The number of ticks per simulated second ((Tick/Second))
hostSeconds                                    938.72                       # Real time elapsed on the host (Second)
hostTickRate                                 43354845                       # The number of ticks simulated per host second (ticks/s) ((Tick/Second))
hostMemory                                     934320                       # Number of bytes of host memory used (Byte)
simInsts                                    133250515                       # Number of instructions simulated (Count)
simOps                                      235887057                       # Number of ops (including micro ops) simulated (Count)
hostInstRate                                   141949                       # Simulator instruction rate (inst/s) ((Count/Second))
hostOpRate                                     251285                       # Simulator op (including micro ops) rate (op/s) ((Count/Second))
system.clk_domain.clock                          1000                       # Clock period in ticks (Tick)
system.cpu0.numCycles                       162792563                       # Number of cpu cycles simulated (Cycle)
system.cpu0.numWorkItemsStarted                     0                       # Number of work items this cpu started (Count)
system.cpu0.numWorkItemsCompleted                   0                       # Number of work items this cpu completed (Count)
system.cpu0.instsAdded                       55884639                       # Number of instructions added to the IQ (excludes non-spec) (Count)
system.cpu0.nonSpecInstsAdded                    1221                       # Number of non-speculative instructions added to the IQ (Count)
system.cpu0.instsIssued                      55970085                       # Number of instructions issued (Count)
system.cpu0.squashedInstsIssued                  2002                       # Number of squashed instructions issued (Count)
system.cpu0.squashedInstsExamined              573420                       # Number of squashed instructions iterated over during squash; mainly for profiling (Count)
system.cpu0.squashedOperandsExamined           773732                       # Number of squashed operands that are examined and possibly removed from graph (Count)
system.cpu0.squashedNonSpecRemoved                321                       # Number of squashed non-spec instructions that were removed (Count)
system.cpu0.numIssuedDist::samples          162393181                       # Number of insts issued each cycle (Count)
system.cpu0.numIssuedDist::mean              0.344658                       # Number of insts issued each cycle (Count)
system.cpu0.numIssuedDist::stdev             1.114904                       # Number of insts issued each cycle (Count)
system.cpu0.numIssuedDist::underflows               0      0.00%      0.00% # Number of insts issued each cycle (Count)
system.cpu0.numIssuedDist::0                142221587     87.58%     87.58% # Number of insts issued each cycle (Count)
system.cpu0.numIssuedDist::1                  6637453      4.09%     91.67% # Number of insts issued each cycle (Count)
system.cpu0.numIssuedDist::2                  4518665      2.78%     94.45% # Number of insts issued each cycle (Count)
system.cpu0.numIssuedDist::3                  2489133      1.53%     95.98% # Number of insts issued each cycle (Count)
system.cpu0.numIssuedDist::4                  3077618      1.90%     97.88% # Number of insts issued each cycle (Count)
system.cpu0.numIssuedDist::5                  1302140      0.80%     98.68% # Number of insts issued each cycle (Count)
system.cpu0.numIssuedDist::6                  1172516      0.72%     99.40% # Number of insts issued each cycle (Count)
system.cpu0.numIssuedDist::7                   820917      0.51%     99.91% # Number of insts issued each cycle (Count)
system.cpu0.numIssuedDist::8                   153152      0.09%    100.00% # Number of insts issued each cycle (Count)
system.cpu0.numIssuedDist::overflows                0      0.00%    100.00% # Number of insts issued each cycle (Count)
system.cpu0.numIssuedDist::min_value                0                       # Number of insts issued each cycle (Count)
system.cpu0.numIssuedDist::max_value                8                       # Number of insts issued each cycle (Count)
system.cpu0.numIssuedDist::total            162393181                       # Number of insts issued each cycle (Count)
system.cpu0.statFuBusy::No_OpClass                  0      0.00%      0.00% # attempts to use FU when none available (Count)
system.cpu0.statFuBusy::IntAlu                  13217      1.71%      1.71% # attempts to use FU when none available (Count)
system.cpu0.statFuBusy::IntMult                     0      0.00%      1.71% # attempts to use FU when none available (Count)
system.cpu0.statFuBusy::IntDiv                      0      0.00%      1.71% # attempts to use FU when none available (Count)
system.cpu0.statFuBusy::FloatAdd                    0      0.00%      1.71% # attempts to use FU when none available (Count)
system.cpu0.statFuBusy::FloatCmp                    0      0.00%      1.71% # attempts to use FU when none available (Count)
system.cpu0.statFuBusy::FloatCvt                    0      0.00%      1.71% # attempts to use FU when none available (Count)
system.cpu0.statFuBusy::FloatMult                   0      0.00%      1.71% # attempts to use FU when none available (Count)
system.cpu0.statFuBusy::FloatMultAcc                0      0.00%      1.71% # attempts to use FU when none available (Count)
system.cpu0.statFuBusy::FloatDiv                    0      0.00%      1.71% # attempts to use FU when none available (Count)
system.cpu0.statFuBusy::FloatMisc                   0      0.00%      1.71% # attempts to use FU when none available (Count)
system.cpu0.statFuBusy::FloatSqrt                   0      0.00%      1.71% # attempts to use FU when none available (Count)
system.cpu0.statFuBusy::SimdAdd                     2      0.00%      1.71% # attempts to use FU when none available (Count)
system.cpu0.statFuBusy::SimdAddAcc                  0      0.00%      1.71% # attempts to use FU when none available (Count)
system.cpu0.statFuBusy::SimdAlu                   117      0.02%      1.73% # attempts to use FU when none available (Count)
system.cpu0.statFuBusy::SimdCmp                     0      0.00%      1.73% # attempts to use FU when none available (Count)
system.cpu0.statFuBusy::SimdCvt                   106      0.01%      1.74% # attempts to use FU when none available (Count)
system.cpu0.statFuBusy::SimdMisc                   65      0.01%      1.75% # attempts to use FU when none available (Count)
system.cpu0.statFuBusy::SimdMult                    0      0.00%      1.75% # attempts to use FU when none available (Count)
system.cpu0.statFuBusy::SimdMultAcc                 0      0.00%      1.75% # attempts to use FU when none available (Count)
system.cpu0.statFuBusy::SimdShift                  20      0.00%      1.75% # attempts to use FU when none available (Count)
system.cpu0.statFuBusy::SimdShiftAcc                0      0.00%      1.75% # attempts to use FU when none available (Count)
system.cpu0.statFuBusy::SimdDiv                     0      0.00%      1.75% # attempts to use FU when none available (Count)
system.cpu0.statFuBusy::SimdSqrt                    0      0.00%      1.75% # attempts to use FU when none available (Count)
system.cpu0.statFuBusy::SimdFloatAdd           684002     88.55%     90.30% # attempts to use FU when none available (Count)
system.cpu0.statFuBusy::SimdFloatAlu                0      0.00%     90.30% # attempts to use FU when none available (Count)
system.cpu0.statFuBusy::SimdFloatCmp                0      0.00%     90.30% # attempts to use FU when none available (Count)
system.cpu0.statFuBusy::SimdFloatCvt                0      0.00%     90.30% # attempts to use FU when none available (Count)
system.cpu0.statFuBusy::SimdFloatDiv                0      0.00%     90.30% # attempts to use FU when none available (Count)
system.cpu0.statFuBusy::SimdFloatMisc               0      0.00%     90.30% # attempts to use FU when none available (Count)
system.cpu0.statFuBusy::SimdFloatMult               0      0.00%     90.30% # attempts to use FU when none available (Count)
system.cpu0.statFuBusy::SimdFloatMultAcc            0      0.00%     90.30% # attempts to use FU when none available (Count)
system.cpu0.statFuBusy::SimdFloatSqrt               0      0.00%     90.30% # attempts to use FU when none available (Count)
system.cpu0.statFuBusy::SimdReduceAdd               0      0.00%     90.30% # attempts to use FU when none available (Count)
system.cpu0.statFuBusy::SimdReduceAlu               0      0.00%     90.30% # attempts to use FU when none available (Count)
system.cpu0.statFuBusy::SimdReduceCmp               0      0.00%     90.30% # attempts to use FU when none available (Count)
system.cpu0.statFuBusy::SimdFloatReduceAdd            0      0.00%     90.30% # attempts to use FU when none available (Count)
system.cpu0.statFuBusy::SimdFloatReduceCmp            0      0.00%     90.30% # attempts to use FU when none available (Count)
system.cpu0.statFuBusy::SimdAes                     0      0.00%     90.30% # attempts to use FU when none available (Count)
system.cpu0.statFuBusy::SimdAesMix                  0      0.00%     90.30% # attempts to use FU when none available (Count)
system.cpu0.statFuBusy::SimdSha1Hash                0      0.00%     90.30% # attempts to use FU when none available (Count)
system.cpu0.statFuBusy::SimdSha1Hash2               0      0.00%     90.30% # attempts to use FU when none available (Count)
system.cpu0.statFuBusy::SimdSha256Hash              0      0.00%     90.30% # attempts to use FU when none available (Count)
system.cpu0.statFuBusy::SimdSha256Hash2             0      0.00%     90.30% # attempts to use FU when none available (Count)
system.cpu0.statFuBusy::SimdShaSigma2               0      0.00%     90.30% # attempts to use FU when none available (Count)
system.cpu0.statFuBusy::SimdShaSigma3               0      0.00%     90.30% # attempts to use FU when none available (Count)
system.cpu0.statFuBusy::SimdPredAlu                 0      0.00%     90.30% # attempts to use FU when none available (Count)
system.cpu0.statFuBusy::MemRead                  1827      0.24%     90.53% # attempts to use FU when none available (Count)
system.cpu0.statFuBusy::MemWrite                 1234      0.16%     90.69% # attempts to use FU when none available (Count)
system.cpu0.statFuBusy::FloatMemRead            22018      2.85%     93.54% # attempts to use FU when none available (Count)
system.cpu0.statFuBusy::FloatMemWrite           49867      6.46%    100.00% # attempts to use FU when none available (Count)
system.cpu0.statFuBusy::IprAccess                   0      0.00%    100.00% # attempts to use FU when none available (Count)
system.cpu0.statFuBusy::InstPrefetch                0      0.00%    100.00% # attempts to use FU when none available (Count)
system.cpu0.statIssuedInstType_0::No_OpClass         6665      0.01%      0.01% # Number of instructions issued per FU type, per thread (Count)
system.cpu0.statIssuedInstType_0::IntAlu     28519116     50.95%     50.97% # Number of instructions issued per FU type, per thread (Count)
system.cpu0.statIssuedInstType_0::IntMult          316      0.00%     50.97% # Number of instructions issued per FU type, per thread (Count)
system.cpu0.statIssuedInstType_0::IntDiv         2945      0.01%     50.97% # Number of instructions issued per FU type, per thread (Count)
system.cpu0.statIssuedInstType_0::FloatAdd      4131605      7.38%     58.35% # Number of instructions issued per FU type, per thread (Count)
system.cpu0.statIssuedInstType_0::FloatCmp            0      0.00%     58.35% # Number of instructions issued per FU type, per thread (Count)
system.cpu0.statIssuedInstType_0::FloatCvt          536      0.00%     58.35% # Number of instructions issued per FU type, per thread (Count)
system.cpu0.statIssuedInstType_0::FloatMult            0      0.00%     58.35% # Number of instructions issued per FU type, per thread (Count)
system.cpu0.statIssuedInstType_0::FloatMultAcc            0      0.00%     58.35% # Number of instructions issued per FU type, per thread (Count)
system.cpu0.statIssuedInstType_0::FloatDiv            0      0.00%     58.35% # Number of instructions issued per FU type, per thread (Count)
system.cpu0.statIssuedInstType_0::FloatMisc            0      0.00%     58.35% # Number of instructions issued per FU type, per thread (Count)
system.cpu0.statIssuedInstType_0::FloatSqrt            0      0.00%     58.35% # Number of instructions issued per FU type, per thread (Count)
system.cpu0.statIssuedInstType_0::SimdAdd         2656      0.00%     58.36% # Number of instructions issued per FU type, per thread (Count)
system.cpu0.statIssuedInstType_0::SimdAddAcc            0      0.00%     58.36% # Number of instructions issued per FU type, per thread (Count)
system.cpu0.statIssuedInstType_0::SimdAlu        27102      0.05%     58.41% # Number of instructions issued per FU type, per thread (Count)
system.cpu0.statIssuedInstType_0::SimdCmp           76      0.00%     58.41% # Number of instructions issued per FU type, per thread (Count)
system.cpu0.statIssuedInstType_0::SimdCvt         6362      0.01%     58.42% # Number of instructions issued per FU type, per thread (Count)
system.cpu0.statIssuedInstType_0::SimdMisc         4209      0.01%     58.43% # Number of instructions issued per FU type, per thread (Count)
system.cpu0.statIssuedInstType_0::SimdMult            0      0.00%     58.43% # Number of instructions issued per FU type, per thread (Count)
system.cpu0.statIssuedInstType_0::SimdMultAcc            0      0.00%     58.43% # Number of instructions issued per FU type, per thread (Count)
system.cpu0.statIssuedInstType_0::SimdShift         1825      0.00%     58.43% # Number of instructions issued per FU type, per thread (Count)
system.cpu0.statIssuedInstType_0::SimdShiftAcc            0      0.00%     58.43% # Number of instructions issued per FU type, per thread (Count)
system.cpu0.statIssuedInstType_0::SimdDiv            0      0.00%     58.43% # Number of instructions issued per FU type, per thread (Count)
system.cpu0.statIssuedInstType_0::SimdSqrt            0      0.00%     58.43% # Number of instructions issued per FU type, per thread (Count)
system.cpu0.statIssuedInstType_0::SimdFloatAdd      7135674     12.75%     71.18% # Number of instructions issued per FU type, per thread (Count)
system.cpu0.statIssuedInstType_0::SimdFloatAlu            0      0.00%     71.18% # Number of instructions issued per FU type, per thread (Count)
system.cpu0.statIssuedInstType_0::SimdFloatCmp           26      0.00%     71.18% # Number of instructions issued per FU type, per thread (Count)
system.cpu0.statIssuedInstType_0::SimdFloatCvt      3016066      5.39%     76.57% # Number of instructions issued per FU type, per thread (Count)
system.cpu0.statIssuedInstType_0::SimdFloatDiv           17      0.00%     76.57% # Number of instructions issued per FU type, per thread (Count)
system.cpu0.statIssuedInstType_0::SimdFloatMisc            0      0.00%     76.57% # Number of instructions issued per FU type, per thread (Count)
system.cpu0.statIssuedInstType_0::SimdFloatMult      1005383      1.80%     78.36% # Number of instructions issued per FU type, per thread (Count)
system.cpu0.statIssuedInstType_0::SimdFloatMultAcc            0      0.00%     78.36% # Number of instructions issued per FU type, per thread (Count)
system.cpu0.statIssuedInstType_0::SimdFloatSqrt            0      0.00%     78.36% # Number of instructions issued per FU type, per thread (Count)
system.cpu0.statIssuedInstType_0::SimdReduceAdd            0      0.00%     78.36% # Number of instructions issued per FU type, per thread (Count)
system.cpu0.statIssuedInstType_0::SimdReduceAlu            0      0.00%     78.36% # Number of instructions issued per FU type, per thread (Count)
system.cpu0.statIssuedInstType_0::SimdReduceCmp            0      0.00%     78.36% # Number of instructions issued per FU type, per thread (Count)
system.cpu0.statIssuedInstType_0::SimdFloatReduceAdd            0      0.00%     78.36% # Number of instructions issued per FU type, per thread (Count)
system.cpu0.statIssuedInstType_0::SimdFloatReduceCmp            0      0.00%     78.36% # Number of instructions issued per FU type, per thread (Count)
system.cpu0.statIssuedInstType_0::SimdAes            0      0.00%     78.36% # Number of instructions issued per FU type, per thread (Count)
system.cpu0.statIssuedInstType_0::SimdAesMix            0      0.00%     78.36% # Number of instructions issued per FU type, per thread (Count)
system.cpu0.statIssuedInstType_0::SimdSha1Hash            0      0.00%     78.36% # Number of instructions issued per FU type, per thread (Count)
system.cpu0.statIssuedInstType_0::SimdSha1Hash2            0      0.00%     78.36% # Number of instructions issued per FU type, per thread (Count)
system.cpu0.statIssuedInstType_0::SimdSha256Hash            0      0.00%     78.36% # Number of instructions issued per FU type, per thread (Count)
system.cpu0.statIssuedInstType_0::SimdSha256Hash2            0      0.00%     78.36% # Number of instructions issued per FU type, per thread (Count)
system.cpu0.statIssuedInstType_0::SimdShaSigma2            0      0.00%     78.36% # Number of instructions issued per FU type, per thread (Count)
system.cpu0.statIssuedInstType_0::SimdShaSigma3            0      0.00%     78.36% # Number of instructions issued per FU type, per thread (Count)
system.cpu0.statIssuedInstType_0::SimdPredAlu            0      0.00%     78.36% # Number of instructions issued per FU type, per thread (Count)
system.cpu0.statIssuedInstType_0::MemRead       171809      0.31%     78.67% # Number of instructions issued per FU type, per thread (Count)
system.cpu0.statIssuedInstType_0::MemWrite       185820      0.33%     79.00% # Number of instructions issued per FU type, per thread (Count)
system.cpu0.statIssuedInstType_0::FloatMemRead      9371214     16.74%     95.75% # Number of instructions issued per FU type, per thread (Count)
system.cpu0.statIssuedInstType_0::FloatMemWrite      2380663      4.25%    100.00% # Number of instructions issued per FU type, per thread (Count)
system.cpu0.statIssuedInstType_0::IprAccess            0      0.00%    100.00% # Number of instructions issued per FU type, per thread (Count)
system.cpu0.statIssuedInstType_0::InstPrefetch            0      0.00%    100.00% # Number of instructions issued per FU type, per thread (Count)
system.cpu0.statIssuedInstType_0::total      55970085                       # Number of instructions issued per FU type, per thread (Count)
system.cpu0.issueRate                        0.343812                       # Inst issue rate ((Count/Cycle))
system.cpu0.fuBusy                             772475                       # FU busy when requested (Count)
system.cpu0.fuBusyRate                       0.013802                       # FU busy rate (busy events/executed inst) ((Count/Count))
system.cpu0.intInstQueueReads               216160874                       # Number of integer instruction queue reads (Count)
system.cpu0.intInstQueueWrites               27500490                       # Number of integer instruction queue writes (Count)
system.cpu0.intInstQueueWakeupAccesses       26821589                       # Number of integer instruction queue wakeup accesses (Count)
system.cpu0.fpInstQueueReads                 58946954                       # Number of floating instruction queue reads (Count)
system.cpu0.fpInstQueueWrites                28959105                       # Number of floating instruction queue writes (Count)
system.cpu0.fpInstQueueWakeupAccesses        28884614                       # Number of floating instruction queue wakeup accesses (Count)
system.cpu0.vecInstQueueReads                       0                       # Number of vector instruction queue reads (Count)
system.cpu0.vecInstQueueWrites                      0                       # Number of vector instruction queue writes (Count)
system.cpu0.vecInstQueueWakeupAccesses              0                       # Number of vector instruction queue wakeup accesses (Count)
system.cpu0.intAluAccesses                   26884441                       # Number of integer alu accesses (Count)
system.cpu0.fpAluAccesses                    29851454                       # Number of floating point alu accesses (Count)
system.cpu0.vecAluAccesses                          0                       # Number of vector alu accesses (Count)
system.cpu0.numInsts                         55938115                       # Number of executed instructions (Count)
system.cpu0.numLoadInsts                      9537149                       # Number of load instructions executed (Count)
system.cpu0.numSquashedInsts                    31970                       # Number of squashed instructions skipped in execute (Count)
system.cpu0.numSwp                                  0                       # Number of swp insts executed (Count)
system.cpu0.numNop                                  0                       # Number of nop insts executed (Count)
system.cpu0.numRefs                          12102652                       # Number of memory reference insts executed (Count)
system.cpu0.numBranches                       5209423                       # Number of branches executed (Count)
system.cpu0.numStoreInsts                     2565503                       # Number of stores executed (Count)
system.cpu0.numRate                          0.343616                       # Inst execution rate ((Count/Cycle))
system.cpu0.timesIdled                           1890                       # Number of times that the entire CPU went into an idle state and unscheduled itself (Count)
system.cpu0.idleCycles                         399382                       # Total number of cycles that the CPU has spent unscheduled due to idling (Cycle)
system.cpu0.committedInsts                   30430084                       # Number of Instructions Simulated (Count)
system.cpu0.committedOps                     55312434                       # Number of Ops (including micro ops) Simulated (Count)
system.cpu0.cpi                              5.349724                       # CPI: Cycles Per Instruction ((Cycle/Count))
system.cpu0.totalCpi                         5.349724                       # CPI: Total CPI of All Threads ((Cycle/Count))
system.cpu0.ipc                              0.186926                       # IPC: Instructions Per Cycle ((Count/Cycle))
system.cpu0.totalIpc                         0.186926                       # IPC: Total IPC of All Threads ((Count/Cycle))
system.cpu0.intRegfileReads                  44358954                       # Number of integer regfile reads (Count)
system.cpu0.intRegfileWrites                 19268512                       # Number of integer regfile writes (Count)
system.cpu0.fpRegfileReads                   36949970                       # Number of floating regfile reads (Count)
system.cpu0.fpRegfileWrites                  23495325                       # Number of floating regfile writes (Count)
system.cpu0.ccRegfileReads                   31996734                       # number of cc regfile reads (Count)
system.cpu0.ccRegfileWrites                  14651828                       # number of cc regfile writes (Count)
system.cpu0.miscRegfileReads                 23542644                       # number of misc regfile reads (Count)
system.cpu0.miscRegfileWrites                     234                       # number of misc regfile writes (Count)
system.cpu0.MemDepUnit__0.insertedLoads       9342579                       # Number of loads inserted to the mem dependence unit. (Count)
system.cpu0.MemDepUnit__0.insertedStores      2571294                       # Number of stores inserted to the mem dependence unit. (Count)
system.cpu0.MemDepUnit__0.conflictingLoads       129523                       # Number of conflicting loads. (Count)
system.cpu0.MemDepUnit__0.conflictingStores       127951                       # Number of conflicting stores. (Count)
system.cpu0.MemDepUnit__1.insertedLoads             0                       # Number of loads inserted to the mem dependence unit. (Count)
system.cpu0.MemDepUnit__1.insertedStores            0                       # Number of stores inserted to the mem dependence unit. (Count)
system.cpu0.MemDepUnit__1.conflictingLoads            0                       # Number of conflicting loads. (Count)
system.cpu0.MemDepUnit__1.conflictingStores            0                       # Number of conflicting stores. (Count)
system.cpu0.MemDepUnit__2.insertedLoads             0                       # Number of loads inserted to the mem dependence unit. (Count)
system.cpu0.MemDepUnit__2.insertedStores            0                       # Number of stores inserted to the mem dependence unit. (Count)
system.cpu0.MemDepUnit__2.conflictingLoads            0                       # Number of conflicting loads. (Count)
system.cpu0.MemDepUnit__2.conflictingStores            0                       # Number of conflicting stores. (Count)
system.cpu0.MemDepUnit__3.insertedLoads             0                       # Number of loads inserted to the mem dependence unit. (Count)
system.cpu0.MemDepUnit__3.insertedStores            0                       # Number of stores inserted to the mem dependence unit. (Count)
system.cpu0.MemDepUnit__3.conflictingLoads            0                       # Number of conflicting loads. (Count)
system.cpu0.MemDepUnit__3.conflictingStores            0                       # Number of conflicting stores. (Count)
system.cpu0.branchPred.lookups                5264616                       # Number of BP lookups (Count)
system.cpu0.branchPred.condPredicted          5209966                       # Number of conditional branches predicted (Count)
system.cpu0.branchPred.condIncorrect             9057                       # Number of conditional branches incorrect (Count)
system.cpu0.branchPred.BTBLookups             2139069                       # Number of BTB lookups (Count)
system.cpu0.branchPred.BTBHits                2135399                       # Number of BTB hits (Count)
system.cpu0.branchPred.BTBHitRatio           0.998284                       # BTB Hit Ratio (Ratio)
system.cpu0.branchPred.RASUsed                  19280                       # Number of times the RAS was used to get a target. (Count)
system.cpu0.branchPred.RASIncorrect                 5                       # Number of incorrect RAS predictions. (Count)
system.cpu0.branchPred.indirectLookups          10722                       # Number of indirect predictor lookups. (Count)
system.cpu0.branchPred.indirectHits              6578                       # Number of indirect target hits. (Count)
system.cpu0.branchPred.indirectMisses            4144                       # Number of indirect misses. (Count)
system.cpu0.branchPred.indirectMispredicted          889                       # Number of mispredicted indirect branches. (Count)
system.cpu0.commit.commitSquashedInsts         462762                       # The number of squashed insts skipped by commit (Count)
system.cpu0.commit.commitNonSpecStalls            900                       # The number of times commit has been forced to stall to communicate backwards (Count)
system.cpu0.commit.branchMispredicts             9495                       # The number of times a branch was mispredicted (Count)
system.cpu0.commit.numCommittedDist::samples    162325773                       # Number of insts commited each cycle (Count)
system.cpu0.commit.numCommittedDist::mean     0.340750                       # Number of insts commited each cycle (Count)
system.cpu0.commit.numCommittedDist::stdev     1.467031                       # Number of insts commited each cycle (Count)
system.cpu0.commit.numCommittedDist::underflows            0      0.00%      0.00% # Number of insts commited each cycle (Count)
system.cpu0.commit.numCommittedDist::0      150739370     92.86%     92.86% # Number of insts commited each cycle (Count)
system.cpu0.commit.numCommittedDist::1        2737599      1.69%     94.55% # Number of insts commited each cycle (Count)
system.cpu0.commit.numCommittedDist::2        1066750      0.66%     95.21% # Number of insts commited each cycle (Count)
system.cpu0.commit.numCommittedDist::3        1430734      0.88%     96.09% # Number of insts commited each cycle (Count)
system.cpu0.commit.numCommittedDist::4         772030      0.48%     96.56% # Number of insts commited each cycle (Count)
system.cpu0.commit.numCommittedDist::5         321072      0.20%     96.76% # Number of insts commited each cycle (Count)
system.cpu0.commit.numCommittedDist::6         283499      0.17%     96.94% # Number of insts commited each cycle (Count)
system.cpu0.commit.numCommittedDist::7          43093      0.03%     96.96% # Number of insts commited each cycle (Count)
system.cpu0.commit.numCommittedDist::8        4931626      3.04%    100.00% # Number of insts commited each cycle (Count)
system.cpu0.commit.numCommittedDist::overflows            0      0.00%    100.00% # Number of insts commited each cycle (Count)
system.cpu0.commit.numCommittedDist::min_value            0                       # Number of insts commited each cycle (Count)
system.cpu0.commit.numCommittedDist::max_value            8                       # Number of insts commited each cycle (Count)
system.cpu0.commit.numCommittedDist::total    162325773                       # Number of insts commited each cycle (Count)
system.cpu0.commit.instsCommitted            30430084                       # Number of instructions committed (Count)
system.cpu0.commit.opsCommitted              55312434                       # Number of ops (including micro ops) committed (Count)
system.cpu0.commit.memRefs                   11809332                       # Number of memory references committed (Count)
system.cpu0.commit.loads                      9260070                       # Number of loads committed (Count)
system.cpu0.commit.amos                             0                       # Number of atomic instructions committed (Count)
system.cpu0.commit.membars                        444                       # Number of memory barriers committed (Count)
system.cpu0.commit.branches                   5172983                       # Number of branches committed (Count)
system.cpu0.commit.vectorInstructions               0                       # Number of committed Vector instructions. (Count)
system.cpu0.commit.floating                  28827719                       # Number of committed floating point instructions. (Count)
system.cpu0.commit.integer                   37996580                       # Number of committed integer instructions. (Count)
system.cpu0.commit.functionCalls                 9011                       # Number of function calls committed. (Count)
system.cpu0.commit.committedInstType_0::No_OpClass         2186      0.00%      0.00% # Class of committed instruction (Count)
system.cpu0.commit.committedInstType_0::IntAlu     28202290     50.99%     50.99% # Class of committed instruction (Count)
system.cpu0.commit.committedInstType_0::IntMult          288      0.00%     50.99% # Class of committed instruction (Count)
system.cpu0.commit.committedInstType_0::IntDiv         2655      0.00%     51.00% # Class of committed instruction (Count)
system.cpu0.commit.committedInstType_0::FloatAdd      4128332      7.46%     58.46% # Class of committed instruction (Count)
system.cpu0.commit.committedInstType_0::FloatCmp            0      0.00%     58.46% # Class of committed instruction (Count)
system.cpu0.commit.committedInstType_0::FloatCvt          416      0.00%     58.46% # Class of committed instruction (Count)
system.cpu0.commit.committedInstType_0::FloatMult            0      0.00%     58.46% # Class of committed instruction (Count)
system.cpu0.commit.committedInstType_0::FloatMultAcc            0      0.00%     58.46% # Class of committed instruction (Count)
system.cpu0.commit.committedInstType_0::FloatDiv            0      0.00%     58.46% # Class of committed instruction (Count)
system.cpu0.commit.committedInstType_0::FloatMisc            0      0.00%     58.46% # Class of committed instruction (Count)
system.cpu0.commit.committedInstType_0::FloatSqrt            0      0.00%     58.46% # Class of committed instruction (Count)
system.cpu0.commit.committedInstType_0::SimdAdd         2080      0.00%     58.46% # Class of committed instruction (Count)
system.cpu0.commit.committedInstType_0::SimdAddAcc            0      0.00%     58.46% # Class of committed instruction (Count)
system.cpu0.commit.committedInstType_0::SimdAlu        14425      0.03%     58.49% # Class of committed instruction (Count)
system.cpu0.commit.committedInstType_0::SimdCmp           72      0.00%     58.49% # Class of committed instruction (Count)
system.cpu0.commit.committedInstType_0::SimdCvt         4652      0.01%     58.50% # Class of committed instruction (Count)
system.cpu0.commit.committedInstType_0::SimdMisc         3593      0.01%     58.51% # Class of committed instruction (Count)
system.cpu0.commit.committedInstType_0::SimdMult            0      0.00%     58.51% # Class of committed instruction (Count)
system.cpu0.commit.committedInstType_0::SimdMultAcc            0      0.00%     58.51% # Class of committed instruction (Count)
system.cpu0.commit.committedInstType_0::SimdShift          932      0.00%     58.51% # Class of committed instruction (Count)
system.cpu0.commit.committedInstType_0::SimdShiftAcc            0      0.00%     58.51% # Class of committed instruction (Count)
system.cpu0.commit.committedInstType_0::SimdDiv            0      0.00%     58.51% # Class of committed instruction (Count)
system.cpu0.commit.committedInstType_0::SimdSqrt            0      0.00%     58.51% # Class of committed instruction (Count)
system.cpu0.commit.committedInstType_0::SimdFloatAdd      7130366     12.89%     71.40% # Class of committed instruction (Count)
system.cpu0.commit.committedInstType_0::SimdFloatAlu            0      0.00%     71.40% # Class of committed instruction (Count)
system.cpu0.commit.committedInstType_0::SimdFloatCmp           24      0.00%     71.40% # Class of committed instruction (Count)
system.cpu0.commit.committedInstType_0::SimdFloatCvt      3008062      5.44%     76.84% # Class of committed instruction (Count)
system.cpu0.commit.committedInstType_0::SimdFloatDiv           15      0.00%     76.84% # Class of committed instruction (Count)
system.cpu0.commit.committedInstType_0::SimdFloatMisc            0      0.00%     76.84% # Class of committed instruction (Count)
system.cpu0.commit.committedInstType_0::SimdFloatMult      1002714      1.81%     78.65% # Class of committed instruction (Count)
system.cpu0.commit.committedInstType_0::SimdFloatMultAcc            0      0.00%     78.65% # Class of committed instruction (Count)
system.cpu0.commit.committedInstType_0::SimdFloatSqrt            0      0.00%     78.65% # Class of committed instruction (Count)
system.cpu0.commit.committedInstType_0::SimdReduceAdd            0      0.00%     78.65% # Class of committed instruction (Count)
system.cpu0.commit.committedInstType_0::SimdReduceAlu            0      0.00%     78.65% # Class of committed instruction (Count)
system.cpu0.commit.committedInstType_0::SimdReduceCmp            0      0.00%     78.65% # Class of committed instruction (Count)
system.cpu0.commit.committedInstType_0::SimdFloatReduceAdd            0      0.00%     78.65% # Class of committed instruction (Count)
system.cpu0.commit.committedInstType_0::SimdFloatReduceCmp            0      0.00%     78.65% # Class of committed instruction (Count)
system.cpu0.commit.committedInstType_0::SimdAes            0      0.00%     78.65% # Class of committed instruction (Count)
system.cpu0.commit.committedInstType_0::SimdAesMix            0      0.00%     78.65% # Class of committed instruction (Count)
system.cpu0.commit.committedInstType_0::SimdSha1Hash            0      0.00%     78.65% # Class of committed instruction (Count)
system.cpu0.commit.committedInstType_0::SimdSha1Hash2            0      0.00%     78.65% # Class of committed instruction (Count)
system.cpu0.commit.committedInstType_0::SimdSha256Hash            0      0.00%     78.65% # Class of committed instruction (Count)
system.cpu0.commit.committedInstType_0::SimdSha256Hash2            0      0.00%     78.65% # Class of committed instruction (Count)
system.cpu0.commit.committedInstType_0::SimdShaSigma2            0      0.00%     78.65% # Class of committed instruction (Count)
system.cpu0.commit.committedInstType_0::SimdShaSigma3            0      0.00%     78.65% # Class of committed instruction (Count)
system.cpu0.commit.committedInstType_0::SimdPredAlu            0      0.00%     78.65% # Class of committed instruction (Count)
system.cpu0.commit.committedInstType_0::MemRead       114433      0.21%     78.86% # Class of committed instruction (Count)
system.cpu0.commit.committedInstType_0::MemWrite       169242      0.31%     79.16% # Class of committed instruction (Count)
system.cpu0.commit.committedInstType_0::FloatMemRead      9145637     16.53%     95.70% # Class of committed instruction (Count)
system.cpu0.commit.committedInstType_0::FloatMemWrite      2380020      4.30%    100.00% # Class of committed instruction (Count)
system.cpu0.commit.committedInstType_0::IprAccess            0      0.00%    100.00% # Class of committed instruction (Count)
system.cpu0.commit.committedInstType_0::InstPrefetch            0      0.00%    100.00% # Class of committed instruction (Count)
system.cpu0.commit.committedInstType_0::total     55312434                       # Class of committed instruction (Count)
system.cpu0.commit.commitEligibleSamples      4931626                       # number cycles where commit BW limit reached (Cycle)
system.cpu0.dcache.demandHits::cpu0.data      6829549                       # number of demand (read+write) hits (Count)
system.cpu0.dcache.demandHits::total          6829549                       # number of demand (read+write) hits (Count)
system.cpu0.dcache.overallHits::cpu0.data      6829549                       # number of overall hits (Count)
system.cpu0.dcache.overallHits::total         6829549                       # number of overall hits (Count)
system.cpu0.dcache.demandMisses::cpu0.data      5033311                       # number of demand (read+write) misses (Count)
system.cpu0.dcache.demandMisses::total        5033311                       # number of demand (read+write) misses (Count)
system.cpu0.dcache.overallMisses::cpu0.data      5033311                       # number of overall misses (Count)
system.cpu0.dcache.overallMisses::total       5033311                       # number of overall misses (Count)
system.cpu0.dcache.demandMissLatency::cpu0.data 299462792734                       # number of demand (read+write) miss ticks (Tick)
system.cpu0.dcache.demandMissLatency::total 299462792734                       # number of demand (read+write) miss ticks (Tick)
system.cpu0.dcache.overallMissLatency::cpu0.data 299462792734                       # number of overall miss ticks (Tick)
system.cpu0.dcache.overallMissLatency::total 299462792734                       # number of overall miss ticks (Tick)
system.cpu0.dcache.demandAccesses::cpu0.data     11862860                       # number of demand (read+write) accesses (Count)
system.cpu0.dcache.demandAccesses::total     11862860                       # number of demand (read+write) accesses (Count)
system.cpu0.dcache.overallAccesses::cpu0.data     11862860                       # number of overall (read+write) accesses (Count)
system.cpu0.dcache.overallAccesses::total     11862860                       # number of overall (read+write) accesses (Count)
system.cpu0.dcache.demandMissRate::cpu0.data     0.424292                       # miss rate for demand accesses (Ratio)
system.cpu0.dcache.demandMissRate::total     0.424292                       # miss rate for demand accesses (Ratio)
system.cpu0.dcache.overallMissRate::cpu0.data     0.424292                       # miss rate for overall accesses (Ratio)
system.cpu0.dcache.overallMissRate::total     0.424292                       # miss rate for overall accesses (Ratio)
system.cpu0.dcache.demandAvgMissLatency::cpu0.data 59496.183076                       # average overall miss latency in ticks ((Tick/Count))
system.cpu0.dcache.demandAvgMissLatency::total 59496.183076                       # average overall miss latency in ticks ((Tick/Count))
system.cpu0.dcache.overallAvgMissLatency::cpu0.data 59496.183076                       # average overall miss latency ((Tick/Count))
system.cpu0.dcache.overallAvgMissLatency::total 59496.183076                       # average overall miss latency ((Tick/Count))
system.cpu0.dcache.blockedCycles::no_mshrs     22058688                       # number of cycles access was blocked (Cycle)
system.cpu0.dcache.blockedCycles::no_targets         4092                       # number of cycles access was blocked (Cycle)
system.cpu0.dcache.blockedCauses::no_mshrs       247029                       # number of times access was blocked (Count)
system.cpu0.dcache.blockedCauses::no_targets           27                       # number of times access was blocked (Count)
system.cpu0.dcache.avgBlocked::no_mshrs     89.295945                       # average number of cycles each access was blocked ((Cycle/Count))
system.cpu0.dcache.avgBlocked::no_targets   151.555556                       # average number of cycles each access was blocked ((Cycle/Count))
system.cpu0.dcache.writebacks::writebacks       314760                       # number of writebacks (Count)
system.cpu0.dcache.writebacks::total           314760                       # number of writebacks (Count)
system.cpu0.dcache.demandMshrHits::cpu0.data      3964304                       # number of demand (read+write) MSHR hits (Count)
system.cpu0.dcache.demandMshrHits::total      3964304                       # number of demand (read+write) MSHR hits (Count)
system.cpu0.dcache.overallMshrHits::cpu0.data      3964304                       # number of overall MSHR hits (Count)
system.cpu0.dcache.overallMshrHits::total      3964304                       # number of overall MSHR hits (Count)
system.cpu0.dcache.demandMshrMisses::cpu0.data      1069007                       # number of demand (read+write) MSHR misses (Count)
system.cpu0.dcache.demandMshrMisses::total      1069007                       # number of demand (read+write) MSHR misses (Count)
system.cpu0.dcache.overallMshrMisses::cpu0.data      1069007                       # number of overall MSHR misses (Count)
system.cpu0.dcache.overallMshrMisses::total      1069007                       # number of overall MSHR misses (Count)
system.cpu0.dcache.demandMshrMissLatency::cpu0.data  92689582985                       # number of demand (read+write) MSHR miss ticks (Tick)
system.cpu0.dcache.demandMshrMissLatency::total  92689582985                       # number of demand (read+write) MSHR miss ticks (Tick)
system.cpu0.dcache.overallMshrMissLatency::cpu0.data  92689582985                       # number of overall MSHR miss ticks (Tick)
system.cpu0.dcache.overallMshrMissLatency::total  92689582985                       # number of overall MSHR miss ticks (Tick)
system.cpu0.dcache.demandMshrMissRate::cpu0.data     0.090114                       # mshr miss ratio for demand accesses (Ratio)
system.cpu0.dcache.demandMshrMissRate::total     0.090114                       # mshr miss ratio for demand accesses (Ratio)
system.cpu0.dcache.overallMshrMissRate::cpu0.data     0.090114                       # mshr miss ratio for overall accesses (Ratio)
system.cpu0.dcache.overallMshrMissRate::total     0.090114                       # mshr miss ratio for overall accesses (Ratio)
system.cpu0.dcache.demandAvgMshrMissLatency::cpu0.data 86706.245127                       # average overall mshr miss latency ((Tick/Count))
system.cpu0.dcache.demandAvgMshrMissLatency::total 86706.245127                       # average overall mshr miss latency ((Tick/Count))
system.cpu0.dcache.overallAvgMshrMissLatency::cpu0.data 86706.245127                       # average overall mshr miss latency ((Tick/Count))
system.cpu0.dcache.overallAvgMshrMissLatency::total 86706.245127                       # average overall mshr miss latency ((Tick/Count))
system.cpu0.dcache.replacements               1067700                       # number of replacements (Count)
system.cpu0.dcache.LockedRMWReadReq.hits::cpu0.data          181                       # number of LockedRMWReadReq hits (Count)
system.cpu0.dcache.LockedRMWReadReq.hits::total          181                       # number of LockedRMWReadReq hits (Count)
system.cpu0.dcache.LockedRMWReadReq.misses::cpu0.data           41                       # number of LockedRMWReadReq misses (Count)
system.cpu0.dcache.LockedRMWReadReq.misses::total           41                       # number of LockedRMWReadReq misses (Count)
system.cpu0.dcache.LockedRMWReadReq.missLatency::cpu0.data       979000                       # number of LockedRMWReadReq miss ticks (Tick)
system.cpu0.dcache.LockedRMWReadReq.missLatency::total       979000                       # number of LockedRMWReadReq miss ticks (Tick)
system.cpu0.dcache.LockedRMWReadReq.accesses::cpu0.data          222                       # number of LockedRMWReadReq accesses(hits+misses) (Count)
system.cpu0.dcache.LockedRMWReadReq.accesses::total          222                       # number of LockedRMWReadReq accesses(hits+misses) (Count)
system.cpu0.dcache.LockedRMWReadReq.missRate::cpu0.data     0.184685                       # miss rate for LockedRMWReadReq accesses (Ratio)
system.cpu0.dcache.LockedRMWReadReq.missRate::total     0.184685                       # miss rate for LockedRMWReadReq accesses (Ratio)
system.cpu0.dcache.LockedRMWReadReq.avgMissLatency::cpu0.data 23878.048780                       # average LockedRMWReadReq miss latency ((Tick/Count))
system.cpu0.dcache.LockedRMWReadReq.avgMissLatency::total 23878.048780                       # average LockedRMWReadReq miss latency ((Tick/Count))
system.cpu0.dcache.LockedRMWReadReq.mshrMisses::cpu0.data           41                       # number of LockedRMWReadReq MSHR misses (Count)
system.cpu0.dcache.LockedRMWReadReq.mshrMisses::total           41                       # number of LockedRMWReadReq MSHR misses (Count)
system.cpu0.dcache.LockedRMWReadReq.mshrMissLatency::cpu0.data      2425750                       # number of LockedRMWReadReq MSHR miss ticks (Tick)
system.cpu0.dcache.LockedRMWReadReq.mshrMissLatency::total      2425750                       # number of LockedRMWReadReq MSHR miss ticks (Tick)
system.cpu0.dcache.LockedRMWReadReq.mshrMissRate::cpu0.data     0.184685                       # mshr miss rate for LockedRMWReadReq accesses (Ratio)
system.cpu0.dcache.LockedRMWReadReq.mshrMissRate::total     0.184685                       # mshr miss rate for LockedRMWReadReq accesses (Ratio)
system.cpu0.dcache.LockedRMWReadReq.avgMshrMissLatency::cpu0.data 59164.634146                       # average LockedRMWReadReq mshr miss latency ((Tick/Count))
system.cpu0.dcache.LockedRMWReadReq.avgMshrMissLatency::total 59164.634146                       # average LockedRMWReadReq mshr miss latency ((Tick/Count))
system.cpu0.dcache.LockedRMWWriteReq.hits::cpu0.data          222                       # number of LockedRMWWriteReq hits (Count)
system.cpu0.dcache.LockedRMWWriteReq.hits::total          222                       # number of LockedRMWWriteReq hits (Count)
system.cpu0.dcache.LockedRMWWriteReq.accesses::cpu0.data          222                       # number of LockedRMWWriteReq accesses(hits+misses) (Count)
system.cpu0.dcache.LockedRMWWriteReq.accesses::total          222                       # number of LockedRMWWriteReq accesses(hits+misses) (Count)
system.cpu0.dcache.ReadReq.hits::cpu0.data      4579439                       # number of ReadReq hits (Count)
system.cpu0.dcache.ReadReq.hits::total        4579439                       # number of ReadReq hits (Count)
system.cpu0.dcache.ReadReq.misses::cpu0.data      4734363                       # number of ReadReq misses (Count)
system.cpu0.dcache.ReadReq.misses::total      4734363                       # number of ReadReq misses (Count)
system.cpu0.dcache.ReadReq.missLatency::cpu0.data 277032140750                       # number of ReadReq miss ticks (Tick)
system.cpu0.dcache.ReadReq.missLatency::total 277032140750                       # number of ReadReq miss ticks (Tick)
system.cpu0.dcache.ReadReq.accesses::cpu0.data      9313802                       # number of ReadReq accesses(hits+misses) (Count)
system.cpu0.dcache.ReadReq.accesses::total      9313802                       # number of ReadReq accesses(hits+misses) (Count)
system.cpu0.dcache.ReadReq.missRate::cpu0.data     0.508317                       # miss rate for ReadReq accesses (Ratio)
system.cpu0.dcache.ReadReq.missRate::total     0.508317                       # miss rate for ReadReq accesses (Ratio)
system.cpu0.dcache.ReadReq.avgMissLatency::cpu0.data 58515.187946                       # average ReadReq miss latency ((Tick/Count))
system.cpu0.dcache.ReadReq.avgMissLatency::total 58515.187946                       # average ReadReq miss latency ((Tick/Count))
system.cpu0.dcache.ReadReq.mshrHits::cpu0.data      3964294                       # number of ReadReq MSHR hits (Count)
system.cpu0.dcache.ReadReq.mshrHits::total      3964294                       # number of ReadReq MSHR hits (Count)
system.cpu0.dcache.ReadReq.mshrMisses::cpu0.data       770069                       # number of ReadReq MSHR misses (Count)
system.cpu0.dcache.ReadReq.mshrMisses::total       770069                       # number of ReadReq MSHR misses (Count)
system.cpu0.dcache.ReadReq.mshrMissLatency::cpu0.data  70408965500                       # number of ReadReq MSHR miss ticks (Tick)
system.cpu0.dcache.ReadReq.mshrMissLatency::total  70408965500                       # number of ReadReq MSHR miss ticks (Tick)
system.cpu0.dcache.ReadReq.mshrMissRate::cpu0.data     0.082680                       # mshr miss rate for ReadReq accesses (Ratio)
system.cpu0.dcache.ReadReq.mshrMissRate::total     0.082680                       # mshr miss rate for ReadReq accesses (Ratio)
system.cpu0.dcache.ReadReq.avgMshrMissLatency::cpu0.data 91432.021676                       # average ReadReq mshr miss latency ((Tick/Count))
system.cpu0.dcache.ReadReq.avgMshrMissLatency::total 91432.021676                       # average ReadReq mshr miss latency ((Tick/Count))
system.cpu0.dcache.WriteReq.hits::cpu0.data      2250110                       # number of WriteReq hits (Count)
system.cpu0.dcache.WriteReq.hits::total       2250110                       # number of WriteReq hits (Count)
system.cpu0.dcache.WriteReq.misses::cpu0.data       298948                       # number of WriteReq misses (Count)
system.cpu0.dcache.WriteReq.misses::total       298948                       # number of WriteReq misses (Count)
system.cpu0.dcache.WriteReq.missLatency::cpu0.data  22430651984                       # number of WriteReq miss ticks (Tick)
system.cpu0.dcache.WriteReq.missLatency::total  22430651984                       # number of WriteReq miss ticks (Tick)
system.cpu0.dcache.WriteReq.accesses::cpu0.data      2549058                       # number of WriteReq accesses(hits+misses) (Count)
system.cpu0.dcache.WriteReq.accesses::total      2549058                       # number of WriteReq accesses(hits+misses) (Count)
system.cpu0.dcache.WriteReq.missRate::cpu0.data     0.117278                       # miss rate for WriteReq accesses (Ratio)
system.cpu0.dcache.WriteReq.missRate::total     0.117278                       # miss rate for WriteReq accesses (Ratio)
system.cpu0.dcache.WriteReq.avgMissLatency::cpu0.data 75031.951992                       # average WriteReq miss latency ((Tick/Count))
system.cpu0.dcache.WriteReq.avgMissLatency::total 75031.951992                       # average WriteReq miss latency ((Tick/Count))
system.cpu0.dcache.WriteReq.mshrHits::cpu0.data           10                       # number of WriteReq MSHR hits (Count)
system.cpu0.dcache.WriteReq.mshrHits::total           10                       # number of WriteReq MSHR hits (Count)
system.cpu0.dcache.WriteReq.mshrMisses::cpu0.data       298938                       # number of WriteReq MSHR misses (Count)
system.cpu0.dcache.WriteReq.mshrMisses::total       298938                       # number of WriteReq MSHR misses (Count)
system.cpu0.dcache.WriteReq.mshrMissLatency::cpu0.data  22280617485                       # number of WriteReq MSHR miss ticks (Tick)
system.cpu0.dcache.WriteReq.mshrMissLatency::total  22280617485                       # number of WriteReq MSHR miss ticks (Tick)
system.cpu0.dcache.WriteReq.mshrMissRate::cpu0.data     0.117274                       # mshr miss rate for WriteReq accesses (Ratio)
system.cpu0.dcache.WriteReq.mshrMissRate::total     0.117274                       # mshr miss rate for WriteReq accesses (Ratio)
system.cpu0.dcache.WriteReq.avgMshrMissLatency::cpu0.data 74532.570249                       # average WriteReq mshr miss latency ((Tick/Count))
system.cpu0.dcache.WriteReq.avgMshrMissLatency::total 74532.570249                       # average WriteReq mshr miss latency ((Tick/Count))
system.cpu0.dcache.power_state.pwrStateResidencyTicks::UNDEFINED  40698140500                       # Cumulative time (in ticks) in various power states (Tick)
system.cpu0.dcache.tags.tagsInUse         1022.523887                       # Average ticks per tags in use ((Tick/Count))
system.cpu0.dcache.tags.totalRefs             7899001                       # Total number of references to valid blocks. (Count)
system.cpu0.dcache.tags.sampledRefs           1068963                       # Sample count of references to valid blocks. (Count)
system.cpu0.dcache.tags.avgRefs              7.389405                       # Average number of references to valid blocks. ((Count/Count))
system.cpu0.dcache.tags.warmupTick             149000                       # The tick when the warmup percentage was hit. (Tick)
system.cpu0.dcache.tags.occupancies::cpu0.data  1022.523887                       # Average occupied blocks per tick, per requestor ((Count/Tick))
system.cpu0.dcache.tags.avgOccs::cpu0.data     0.998558                       # Average percentage of cache occupancy ((Ratio/Tick))
system.cpu0.dcache.tags.avgOccs::total       0.998558                       # Average percentage of cache occupancy ((Ratio/Tick))
system.cpu0.dcache.tags.occupanciesTaskId::1024         1024                       # Occupied blocks per task id (Count)
system.cpu0.dcache.tags.ageTaskId_1024::0          149                       # Occupied blocks per task id, per block age (Count)
system.cpu0.dcache.tags.ageTaskId_1024::1          874                       # Occupied blocks per task id, per block age (Count)
system.cpu0.dcache.tags.ageTaskId_1024::4            1                       # Occupied blocks per task id, per block age (Count)
system.cpu0.dcache.tags.ratioOccsTaskId::1024            1                       # Ratio of occupied blocks and all blocks, per task id (Ratio)
system.cpu0.dcache.tags.tagAccesses          24795571                       # Number of tag accesses (Count)
system.cpu0.dcache.tags.dataAccesses         24795571                       # Number of data accesses (Count)
system.cpu0.dcache.tags.power_state.pwrStateResidencyTicks::UNDEFINED  40698140500                       # Cumulative time (in ticks) in various power states (Tick)
system.cpu0.decode.idleCycles                 3193287                       # Number of cycles decode is idle (Cycle)
system.cpu0.decode.blockedCycles            151750975                       # Number of cycles decode is blocked (Cycle)
system.cpu0.decode.runCycles                  4421622                       # Number of cycles decode is running (Cycle)
system.cpu0.decode.unblockCycles              3014506                       # Number of cycles decode is unblocking (Cycle)
system.cpu0.decode.squashCycles                 12791                       # Number of cycles decode is squashing (Cycle)
system.cpu0.decode.branchResolved             2131806                       # Number of times decode resolved a branch (Count)
system.cpu0.decode.branchMispred                 1347                       # Number of times decode detected a branch misprediction (Count)
system.cpu0.decode.decodedInsts              55980457                       # Number of instructions handled by decode (Count)
system.cpu0.decode.squashedInsts                 6492                       # Number of squashed instructions handled by decode (Count)
system.cpu0.dtb_walker_cache.blockedCycles::no_mshrs            0                       # number of cycles access was blocked (Cycle)
system.cpu0.dtb_walker_cache.blockedCycles::no_targets            0                       # number of cycles access was blocked (Cycle)
system.cpu0.dtb_walker_cache.blockedCauses::no_mshrs            0                       # number of times access was blocked (Count)
system.cpu0.dtb_walker_cache.blockedCauses::no_targets            0                       # number of times access was blocked (Count)
system.cpu0.dtb_walker_cache.avgBlocked::no_mshrs          nan                       # average number of cycles each access was blocked ((Cycle/Count))
system.cpu0.dtb_walker_cache.avgBlocked::no_targets          nan                       # average number of cycles each access was blocked ((Cycle/Count))
system.cpu0.dtb_walker_cache.replacements            0                       # number of replacements (Count)
system.cpu0.dtb_walker_cache.power_state.pwrStateResidencyTicks::UNDEFINED  40698140500                       # Cumulative time (in ticks) in various power states (Tick)
system.cpu0.dtb_walker_cache.tags.tagsInUse            0                       # Average ticks per tags in use ((Tick/Count))
system.cpu0.dtb_walker_cache.tags.totalRefs            0                       # Total number of references to valid blocks. (Count)
system.cpu0.dtb_walker_cache.tags.sampledRefs            0                       # Sample count of references to valid blocks. (Count)
system.cpu0.dtb_walker_cache.tags.avgRefs          nan                       # Average number of references to valid blocks. ((Count/Count))
system.cpu0.dtb_walker_cache.tags.warmupTick            0                       # The tick when the warmup percentage was hit. (Tick)
system.cpu0.dtb_walker_cache.tags.tagAccesses            0                       # Number of tag accesses (Count)
system.cpu0.dtb_walker_cache.tags.dataAccesses            0                       # Number of data accesses (Count)
system.cpu0.dtb_walker_cache.tags.power_state.pwrStateResidencyTicks::UNDEFINED  40698140500                       # Cumulative time (in ticks) in various power states (Tick)
system.cpu0.fetch.icacheStallCycles           4571206                       # Number of cycles fetch is stalled on an Icache miss (Cycle)
system.cpu0.fetch.insts                      30816823                       # Number of instructions fetch has processed (Count)
system.cpu0.fetch.branches                    5264616                       # Number of branches that fetch encountered (Count)
system.cpu0.fetch.predictedBranches           2161257                       # Number of branches that fetch has predicted taken (Count)
system.cpu0.fetch.cycles                    157793647                       # Number of cycles fetch has run and was not squashing or blocked (Cycle)
system.cpu0.fetch.squashCycles                  28232                       # Number of cycles fetch has spent squashing (Cycle)
system.cpu0.fetch.miscStallCycles                1825                       # Number of cycles fetch has spent waiting on interrupts, or bad addresses, or out of MSHRs (Cycle)
system.cpu0.fetch.pendingTrapStallCycles        12328                       # Number of stall cycles due to pending traps (Cycle)
system.cpu0.fetch.icacheWaitRetryStallCycles           59                       # Number of stall cycles due to full MSHR (Cycle)
system.cpu0.fetch.cacheLines                  4452188                       # Number of cache lines fetched (Count)
system.cpu0.fetch.icacheSquashes                 3432                       # Number of outstanding Icache misses that were squashed (Count)
system.cpu0.fetch.nisnDist::samples         162393181                       # Number of instructions fetched each cycle (Total) (Count)
system.cpu0.fetch.nisnDist::mean             0.345341                       # Number of instructions fetched each cycle (Total) (Count)
system.cpu0.fetch.nisnDist::stdev            1.532634                       # Number of instructions fetched each cycle (Total) (Count)
system.cpu0.fetch.nisnDist::underflows              0      0.00%      0.00% # Number of instructions fetched each cycle (Total) (Count)
system.cpu0.fetch.nisnDist::0               152993198     94.21%     94.21% # Number of instructions fetched each cycle (Total) (Count)
system.cpu0.fetch.nisnDist::1                  972195      0.60%     94.81% # Number of instructions fetched each cycle (Total) (Count)
system.cpu0.fetch.nisnDist::2                  489042      0.30%     95.11% # Number of instructions fetched each cycle (Total) (Count)
system.cpu0.fetch.nisnDist::3                 1284019      0.79%     95.90% # Number of instructions fetched each cycle (Total) (Count)
system.cpu0.fetch.nisnDist::4                  199791      0.12%     96.03% # Number of instructions fetched each cycle (Total) (Count)
system.cpu0.fetch.nisnDist::5                  295387      0.18%     96.21% # Number of instructions fetched each cycle (Total) (Count)
system.cpu0.fetch.nisnDist::6                  327279      0.20%     96.41% # Number of instructions fetched each cycle (Total) (Count)
system.cpu0.fetch.nisnDist::7                  619320      0.38%     96.79% # Number of instructions fetched each cycle (Total) (Count)
system.cpu0.fetch.nisnDist::8                 5212950      3.21%    100.00% # Number of instructions fetched each cycle (Total) (Count)
system.cpu0.fetch.nisnDist::overflows               0      0.00%    100.00% # Number of instructions fetched each cycle (Total) (Count)
system.cpu0.fetch.nisnDist::min_value               0                       # Number of instructions fetched each cycle (Total) (Count)
system.cpu0.fetch.nisnDist::max_value               8                       # Number of instructions fetched each cycle (Total) (Count)
system.cpu0.fetch.nisnDist::total           162393181                       # Number of instructions fetched each cycle (Total) (Count)
system.cpu0.fetch.branchRate                 0.032339                       # Number of branch fetches per cycle (Ratio)
system.cpu0.fetch.rate                       0.189301                       # Number of inst fetches per cycle ((Count/Cycle))
system.cpu0.icache.demandHits::cpu0.inst      4448707                       # number of demand (read+write) hits (Count)
system.cpu0.icache.demandHits::total          4448707                       # number of demand (read+write) hits (Count)
system.cpu0.icache.overallHits::cpu0.inst      4448707                       # number of overall hits (Count)
system.cpu0.icache.overallHits::total         4448707                       # number of overall hits (Count)
system.cpu0.icache.demandMisses::cpu0.inst         3481                       # number of demand (read+write) misses (Count)
system.cpu0.icache.demandMisses::total           3481                       # number of demand (read+write) misses (Count)
system.cpu0.icache.overallMisses::cpu0.inst         3481                       # number of overall misses (Count)
system.cpu0.icache.overallMisses::total          3481                       # number of overall misses (Count)
system.cpu0.icache.demandMissLatency::cpu0.inst    220309499                       # number of demand (read+write) miss ticks (Tick)
system.cpu0.icache.demandMissLatency::total    220309499                       # number of demand (read+write) miss ticks (Tick)
system.cpu0.icache.overallMissLatency::cpu0.inst    220309499                       # number of overall miss ticks (Tick)
system.cpu0.icache.overallMissLatency::total    220309499                       # number of overall miss ticks (Tick)
system.cpu0.icache.demandAccesses::cpu0.inst      4452188                       # number of demand (read+write) accesses (Count)
system.cpu0.icache.demandAccesses::total      4452188                       # number of demand (read+write) accesses (Count)
system.cpu0.icache.overallAccesses::cpu0.inst      4452188                       # number of overall (read+write) accesses (Count)
system.cpu0.icache.overallAccesses::total      4452188                       # number of overall (read+write) accesses (Count)
system.cpu0.icache.demandMissRate::cpu0.inst     0.000782                       # miss rate for demand accesses (Ratio)
system.cpu0.icache.demandMissRate::total     0.000782                       # miss rate for demand accesses (Ratio)
system.cpu0.icache.overallMissRate::cpu0.inst     0.000782                       # miss rate for overall accesses (Ratio)
system.cpu0.icache.overallMissRate::total     0.000782                       # miss rate for overall accesses (Ratio)
system.cpu0.icache.demandAvgMissLatency::cpu0.inst 63289.140764                       # average overall miss latency in ticks ((Tick/Count))
system.cpu0.icache.demandAvgMissLatency::total 63289.140764                       # average overall miss latency in ticks ((Tick/Count))
system.cpu0.icache.overallAvgMissLatency::cpu0.inst 63289.140764                       # average overall miss latency ((Tick/Count))
system.cpu0.icache.overallAvgMissLatency::total 63289.140764                       # average overall miss latency ((Tick/Count))
system.cpu0.icache.blockedCycles::no_mshrs         1189                       # number of cycles access was blocked (Cycle)
system.cpu0.icache.blockedCycles::no_targets            0                       # number of cycles access was blocked (Cycle)
system.cpu0.icache.blockedCauses::no_mshrs           13                       # number of times access was blocked (Count)
system.cpu0.icache.blockedCauses::no_targets            0                       # number of times access was blocked (Count)
system.cpu0.icache.avgBlocked::no_mshrs     91.461538                       # average number of cycles each access was blocked ((Cycle/Count))
system.cpu0.icache.avgBlocked::no_targets          nan                       # average number of cycles each access was blocked ((Cycle/Count))
system.cpu0.icache.writebacks::writebacks         2234                       # number of writebacks (Count)
system.cpu0.icache.writebacks::total             2234                       # number of writebacks (Count)
system.cpu0.icache.demandMshrHits::cpu0.inst          733                       # number of demand (read+write) MSHR hits (Count)
system.cpu0.icache.demandMshrHits::total          733                       # number of demand (read+write) MSHR hits (Count)
system.cpu0.icache.overallMshrHits::cpu0.inst          733                       # number of overall MSHR hits (Count)
system.cpu0.icache.overallMshrHits::total          733                       # number of overall MSHR hits (Count)
system.cpu0.icache.demandMshrMisses::cpu0.inst         2748                       # number of demand (read+write) MSHR misses (Count)
system.cpu0.icache.demandMshrMisses::total         2748                       # number of demand (read+write) MSHR misses (Count)
system.cpu0.icache.overallMshrMisses::cpu0.inst         2748                       # number of overall MSHR misses (Count)
system.cpu0.icache.overallMshrMisses::total         2748                       # number of overall MSHR misses (Count)
system.cpu0.icache.demandMshrMissLatency::cpu0.inst    178785499                       # number of demand (read+write) MSHR miss ticks (Tick)
system.cpu0.icache.demandMshrMissLatency::total    178785499                       # number of demand (read+write) MSHR miss ticks (Tick)
system.cpu0.icache.overallMshrMissLatency::cpu0.inst    178785499                       # number of overall MSHR miss ticks (Tick)
system.cpu0.icache.overallMshrMissLatency::total    178785499                       # number of overall MSHR miss ticks (Tick)
system.cpu0.icache.demandMshrMissRate::cpu0.inst     0.000617                       # mshr miss ratio for demand accesses (Ratio)
system.cpu0.icache.demandMshrMissRate::total     0.000617                       # mshr miss ratio for demand accesses (Ratio)
system.cpu0.icache.overallMshrMissRate::cpu0.inst     0.000617                       # mshr miss ratio for overall accesses (Ratio)
system.cpu0.icache.overallMshrMissRate::total     0.000617                       # mshr miss ratio for overall accesses (Ratio)
system.cpu0.icache.demandAvgMshrMissLatency::cpu0.inst 65060.225255                       # average overall mshr miss latency ((Tick/Count))
system.cpu0.icache.demandAvgMshrMissLatency::total 65060.225255                       # average overall mshr miss latency ((Tick/Count))
system.cpu0.icache.overallAvgMshrMissLatency::cpu0.inst 65060.225255                       # average overall mshr miss latency ((Tick/Count))
system.cpu0.icache.overallAvgMshrMissLatency::total 65060.225255                       # average overall mshr miss latency ((Tick/Count))
system.cpu0.icache.replacements                  2234                       # number of replacements (Count)
system.cpu0.icache.ReadReq.hits::cpu0.inst      4448707                       # number of ReadReq hits (Count)
system.cpu0.icache.ReadReq.hits::total        4448707                       # number of ReadReq hits (Count)
system.cpu0.icache.ReadReq.misses::cpu0.inst         3481                       # number of ReadReq misses (Count)
system.cpu0.icache.ReadReq.misses::total         3481                       # number of ReadReq misses (Count)
system.cpu0.icache.ReadReq.missLatency::cpu0.inst    220309499                       # number of ReadReq miss ticks (Tick)
system.cpu0.icache.ReadReq.missLatency::total    220309499                       # number of ReadReq miss ticks (Tick)
system.cpu0.icache.ReadReq.accesses::cpu0.inst      4452188                       # number of ReadReq accesses(hits+misses) (Count)
system.cpu0.icache.ReadReq.accesses::total      4452188                       # number of ReadReq accesses(hits+misses) (Count)
system.cpu0.icache.ReadReq.missRate::cpu0.inst     0.000782                       # miss rate for ReadReq accesses (Ratio)
system.cpu0.icache.ReadReq.missRate::total     0.000782                       # miss rate for ReadReq accesses (Ratio)
system.cpu0.icache.ReadReq.avgMissLatency::cpu0.inst 63289.140764                       # average ReadReq miss latency ((Tick/Count))
system.cpu0.icache.ReadReq.avgMissLatency::total 63289.140764                       # average ReadReq miss latency ((Tick/Count))
system.cpu0.icache.ReadReq.mshrHits::cpu0.inst          733                       # number of ReadReq MSHR hits (Count)
system.cpu0.icache.ReadReq.mshrHits::total          733                       # number of ReadReq MSHR hits (Count)
system.cpu0.icache.ReadReq.mshrMisses::cpu0.inst         2748                       # number of ReadReq MSHR misses (Count)
system.cpu0.icache.ReadReq.mshrMisses::total         2748                       # number of ReadReq MSHR misses (Count)
system.cpu0.icache.ReadReq.mshrMissLatency::cpu0.inst    178785499                       # number of ReadReq MSHR miss ticks (Tick)
system.cpu0.icache.ReadReq.mshrMissLatency::total    178785499                       # number of ReadReq MSHR miss ticks (Tick)
system.cpu0.icache.ReadReq.mshrMissRate::cpu0.inst     0.000617                       # mshr miss rate for ReadReq accesses (Ratio)
system.cpu0.icache.ReadReq.mshrMissRate::total     0.000617                       # mshr miss rate for ReadReq accesses (Ratio)
system.cpu0.icache.ReadReq.avgMshrMissLatency::cpu0.inst 65060.225255                       # average ReadReq mshr miss latency ((Tick/Count))
system.cpu0.icache.ReadReq.avgMshrMissLatency::total 65060.225255                       # average ReadReq mshr miss latency ((Tick/Count))
system.cpu0.icache.power_state.pwrStateResidencyTicks::UNDEFINED  40698140500                       # Cumulative time (in ticks) in various power states (Tick)
system.cpu0.icache.tags.tagsInUse          511.575161                       # Average ticks per tags in use ((Tick/Count))
system.cpu0.icache.tags.totalRefs             4451454                       # Total number of references to valid blocks. (Count)
system.cpu0.icache.tags.sampledRefs              2747                       # Sample count of references to valid blocks. (Count)
system.cpu0.icache.tags.avgRefs           1620.478340                       # Average number of references to valid blocks. ((Count/Count))
system.cpu0.icache.tags.warmupTick              80000                       # The tick when the warmup percentage was hit. (Tick)
system.cpu0.icache.tags.occupancies::cpu0.inst   511.575161                       # Average occupied blocks per tick, per requestor ((Count/Tick))
system.cpu0.icache.tags.avgOccs::cpu0.inst     0.999170                       # Average percentage of cache occupancy ((Ratio/Tick))
system.cpu0.icache.tags.avgOccs::total       0.999170                       # Average percentage of cache occupancy ((Ratio/Tick))
system.cpu0.icache.tags.occupanciesTaskId::1024          512                       # Occupied blocks per task id (Count)
system.cpu0.icache.tags.ageTaskId_1024::0          116                       # Occupied blocks per task id, per block age (Count)
system.cpu0.icache.tags.ageTaskId_1024::1           68                       # Occupied blocks per task id, per block age (Count)
system.cpu0.icache.tags.ageTaskId_1024::4          328                       # Occupied blocks per task id, per block age (Count)
system.cpu0.icache.tags.ratioOccsTaskId::1024            1                       # Ratio of occupied blocks and all blocks, per task id (Ratio)
system.cpu0.icache.tags.tagAccesses           8907123                       # Number of tag accesses (Count)
system.cpu0.icache.tags.dataAccesses          8907123                       # Number of data accesses (Count)
system.cpu0.icache.tags.power_state.pwrStateResidencyTicks::UNDEFINED  40698140500                       # Cumulative time (in ticks) in various power states (Tick)
system.cpu0.iew.idleCycles                          0                       # Number of cycles IEW is idle (Cycle)
system.cpu0.iew.squashCycles                    12791                       # Number of cycles IEW is squashing (Cycle)
system.cpu0.iew.blockCycles                  30672792                       # Number of cycles IEW is blocking (Cycle)
system.cpu0.iew.unblockCycles                17667213                       # Number of cycles IEW is unblocking (Cycle)
system.cpu0.iew.dispatchedInsts              55885860                       # Number of instructions dispatched to IQ (Count)
system.cpu0.iew.dispSquashedInsts                1037                       # Number of squashed instructions skipped by dispatch (Count)
system.cpu0.iew.dispLoadInsts                 9342579                       # Number of dispatched load instructions (Count)
system.cpu0.iew.dispStoreInsts                2571294                       # Number of dispatched store instructions (Count)
system.cpu0.iew.dispNonSpecInsts                  567                       # Number of dispatched non-speculative instructions (Count)
system.cpu0.iew.iqFullEvents                   262204                       # Number of times the IQ has become full, causing a stall (Count)
system.cpu0.iew.lsqFullEvents                17367771                       # Number of times the LSQ has become full, causing a stall (Count)
system.cpu0.iew.memOrderViolationEvents           331                       # Number of memory order violations (Count)
system.cpu0.iew.predictedTakenIncorrect          2743                       # Number of branches that were predicted taken incorrectly (Count)
system.cpu0.iew.predictedNotTakenIncorrect         8166                       # Number of branches that were predicted not taken incorrectly (Count)
system.cpu0.iew.branchMispredicts               10909                       # Number of branch mispredicts detected at execute (Count)
system.cpu0.iew.instsToCommit                55715188                       # Cumulative count of insts sent to commit (Count)
system.cpu0.iew.writebackCount               55706203                       # Cumulative count of insts written-back (Count)
system.cpu0.iew.producerInst                 39869616                       # Number of instructions producing a value (Count)
system.cpu0.iew.consumerInst                 65209478                       # Number of instructions consuming a value (Count)
system.cpu0.iew.wbRate                       0.342191                       # Insts written-back per cycle ((Count/Cycle))
system.cpu0.iew.wbFanout                     0.611408                       # Average fanout of values written-back ((Count/Count))
system.cpu0.interrupts.clk_domain.clock          4000                       # Clock period in ticks (Tick)
system.cpu0.itb_walker_cache.blockedCycles::no_mshrs            0                       # number of cycles access was blocked (Cycle)
system.cpu0.itb_walker_cache.blockedCycles::no_targets            0                       # number of cycles access was blocked (Cycle)
system.cpu0.itb_walker_cache.blockedCauses::no_mshrs            0                       # number of times access was blocked (Count)
system.cpu0.itb_walker_cache.blockedCauses::no_targets            0                       # number of times access was blocked (Count)
system.cpu0.itb_walker_cache.avgBlocked::no_mshrs          nan                       # average number of cycles each access was blocked ((Cycle/Count))
system.cpu0.itb_walker_cache.avgBlocked::no_targets          nan                       # average number of cycles each access was blocked ((Cycle/Count))
system.cpu0.itb_walker_cache.replacements            0                       # number of replacements (Count)
system.cpu0.itb_walker_cache.power_state.pwrStateResidencyTicks::UNDEFINED  40698140500                       # Cumulative time (in ticks) in various power states (Tick)
system.cpu0.itb_walker_cache.tags.tagsInUse            0                       # Average ticks per tags in use ((Tick/Count))
system.cpu0.itb_walker_cache.tags.totalRefs            0                       # Total number of references to valid blocks. (Count)
[...]
system.membus.pktSize_system.cpu5.icache.mem_side_port::total         4032                       # Cumulative packet size per connected requestor and responder (Byte)
system.membus.pktSize_system.cpu5.dcache.mem_side_port::system.mem_ctrls0.port      8005184                       # Cumulative packet size per connected requestor and responder (Byte)
system.membus.pktSize_system.cpu5.dcache.mem_side_port::system.mem_ctrls1.port      7999744                       # Cumulative packet size per connected requestor and responder (Byte)
system.membus.pktSize_system.cpu5.dcache.mem_side_port::system.mem_ctrls2.port      7999936                       # Cumulative packet size per connected requestor and responder (Byte)
system.membus.pktSize_system.cpu5.dcache.mem_side_port::system.mem_ctrls3.port      7999808                       # Cumulative packet size per connected requestor and responder (Byte)
system.membus.pktSize_system.cpu5.dcache.mem_side_port::system.mem_ctrls4.port      7998656                       # Cumulative packet size per connected requestor and responder (Byte)
system.membus.pktSize_system.cpu5.dcache.mem_side_port::system.mem_ctrls5.port      7999616                       # Cumulative packet size per connected requestor and responder (Byte)
system.membus.pktSize_system.cpu5.dcache.mem_side_port::system.mem_ctrls6.port      8002048                       # Cumulative packet size per connected requestor and responder (Byte)
system.membus.pktSize_system.cpu5.dcache.mem_side_port::system.mem_ctrls7.port      8002752                       # Cumulative packet size per connected requestor and responder (Byte)
system.membus.pktSize_system.cpu5.dcache.mem_side_port::total     64007744                       # Cumulative packet size per connected requestor and responder (Byte)
system.membus.pktSize_system.cpu6.icache.mem_side_port::system.mem_ctrls0.port          576                       # Cumulative packet size per connected requestor and responder (Byte)
system.membus.pktSize_system.cpu6.icache.mem_side_port::system.mem_ctrls1.port          384                       # Cumulative packet size per connected requestor and responder (Byte)
system.membus.pktSize_system.cpu6.icache.mem_side_port::system.mem_ctrls2.port          448                       # Cumulative packet size per connected requestor and responder (Byte)
system.membus.pktSize_system.cpu6.icache.mem_side_port::system.mem_ctrls3.port          448                       # Cumulative packet size per connected requestor and responder (Byte)
system.membus.pktSize_system.cpu6.icache.mem_side_port::system.mem_ctrls4.port          384                       # Cumulative packet size per connected requestor and responder (Byte)
system.membus.pktSize_system.cpu6.icache.mem_side_port::system.mem_ctrls5.port          512                       # Cumulative packet size per connected requestor and responder (Byte)
system.membus.pktSize_system.cpu6.icache.mem_side_port::system.mem_ctrls6.port          640                       # Cumulative packet size per connected requestor and responder (Byte)
system.membus.pktSize_system.cpu6.icache.mem_side_port::system.mem_ctrls7.port          448                       # Cumulative packet size per connected requestor and responder (Byte)
system.membus.pktSize_system.cpu6.icache.mem_side_port::total         3840                       # Cumulative packet size per connected requestor and responder (Byte)
system.membus.pktSize_system.cpu6.dcache.mem_side_port::system.mem_ctrls0.port      8004096                       # Cumulative packet size per connected requestor and responder (Byte)
system.membus.pktSize_system.cpu6.dcache.mem_side_port::system.mem_ctrls1.port      8004928                       # Cumulative packet size per connected requestor and responder (Byte)
system.membus.pktSize_system.cpu6.dcache.mem_side_port::system.mem_ctrls2.port      8000000                       # Cumulative packet size per connected requestor and responder (Byte)
system.membus.pktSize_system.cpu6.dcache.mem_side_port::system.mem_ctrls3.port      7999744                       # Cumulative packet size per connected requestor and responder (Byte)
system.membus.pktSize_system.cpu6.dcache.mem_side_port::system.mem_ctrls4.port      7998528                       # Cumulative packet size per connected requestor and responder (Byte)
system.membus.pktSize_system.cpu6.dcache.mem_side_port::system.mem_ctrls5.port      7999616                       # Cumulative packet size per connected requestor and responder (Byte)
system.membus.pktSize_system.cpu6.dcache.mem_side_port::system.mem_ctrls6.port      8000704                       # Cumulative packet size per connected requestor and responder (Byte)
system.membus.pktSize_system.cpu6.dcache.mem_side_port::system.mem_ctrls7.port      7999808                       # Cumulative packet size per connected requestor and responder (Byte)
system.membus.pktSize_system.cpu6.dcache.mem_side_port::total     64007424                       # Cumulative packet size per connected requestor and responder (Byte)
system.membus.pktSize_system.cpu7.icache.mem_side_port::system.mem_ctrls0.port          640                       # Cumulative packet size per connected requestor and responder (Byte)
system.membus.pktSize_system.cpu7.icache.mem_side_port::system.mem_ctrls1.port          448                       # Cumulative packet size per connected requestor and responder (Byte)
system.membus.pktSize_system.cpu7.icache.mem_side_port::system.mem_ctrls2.port          512                       # Cumulative packet size per connected requestor and responder (Byte)
system.membus.pktSize_system.cpu7.icache.mem_side_port::system.mem_ctrls3.port          448                       # Cumulative packet size per connected requestor and responder (Byte)
system.membus.pktSize_system.cpu7.icache.mem_side_port::system.mem_ctrls4.port          384                       # Cumulative packet size per connected requestor and responder (Byte)
system.membus.pktSize_system.cpu7.icache.mem_side_port::system.mem_ctrls5.port          512                       # Cumulative packet size per connected requestor and responder (Byte)
system.membus.pktSize_system.cpu7.icache.mem_side_port::system.mem_ctrls6.port          640                       # Cumulative packet size per connected requestor and responder (Byte)
system.membus.pktSize_system.cpu7.icache.mem_side_port::system.mem_ctrls7.port          448                       # Cumulative packet size per connected requestor and responder (Byte)
system.membus.pktSize_system.cpu7.icache.mem_side_port::total         4032                       # Cumulative packet size per connected requestor and responder (Byte)
system.membus.pktSize_system.cpu7.dcache.mem_side_port::system.mem_ctrls0.port      8001280                       # Cumulative packet size per connected requestor and responder (Byte)
system.membus.pktSize_system.cpu7.dcache.mem_side_port::system.mem_ctrls1.port      8002880                       # Cumulative packet size per connected requestor and responder (Byte)
system.membus.pktSize_system.cpu7.dcache.mem_side_port::system.mem_ctrls2.port      8004480                       # Cumulative packet size per connected requestor and responder (Byte)
system.membus.pktSize_system.cpu7.dcache.mem_side_port::system.mem_ctrls3.port      7999936                       # Cumulative packet size per connected requestor and responder (Byte)
system.membus.pktSize_system.cpu7.dcache.mem_side_port::system.mem_ctrls4.port      7999936                       # Cumulative packet size per connected requestor and responder (Byte)
system.membus.pktSize_system.cpu7.dcache.mem_side_port::system.mem_ctrls5.port      7999680                       # Cumulative packet size per connected requestor and responder (Byte)
system.membus.pktSize_system.cpu7.dcache.mem_side_port::system.mem_ctrls6.port      8001024                       # Cumulative packet size per connected requestor and responder (Byte)
system.membus.pktSize_system.cpu7.dcache.mem_side_port::system.mem_ctrls7.port      7999744                       # Cumulative packet size per connected requestor and responder (Byte)
system.membus.pktSize_system.cpu7.dcache.mem_side_port::total     64008960                       # Cumulative packet size per connected requestor and responder (Byte)
system.membus.pktSize::total                536925760                       # Cumulative packet size per connected requestor and responder (Byte)
system.membus.snoops                             2580                       # Total snoops (Count)
system.membus.snoopTraffic                     152576                       # Total snoop traffic (Byte)
system.membus.snoopFanout::samples            5888098                       # Request fanout histogram (Count)
system.membus.snoopFanout::mean              0.003127                       # Request fanout histogram (Count)
system.membus.snoopFanout::stdev             0.102070                       # Request fanout histogram (Count)
system.membus.snoopFanout::underflows               0      0.00%      0.00% # Request fanout histogram (Count)
system.membus.snoopFanout::0                  5877302     99.82%     99.82% # Request fanout histogram (Count)
system.membus.snoopFanout::1                     8675      0.15%     99.96% # Request fanout histogram (Count)
system.membus.snoopFanout::2                      436      0.01%     99.97% # Request fanout histogram (Count)
system.membus.snoopFanout::3                      381      0.01%     99.98% # Request fanout histogram (Count)
system.membus.snoopFanout::4                      245      0.00%     99.98% # Request fanout histogram (Count)
system.membus.snoopFanout::5                      232      0.00%     99.99% # Request fanout histogram (Count)
system.membus.snoopFanout::6                      219      0.00%     99.99% # Request fanout histogram (Count)
system.membus.snoopFanout::7                      601      0.01%    100.00% # Request fanout histogram (Count)
system.membus.snoopFanout::8                        5      0.00%    100.00% # Request fanout histogram (Count)
system.membus.snoopFanout::9                        1      0.00%    100.00% # Request fanout histogram (Count)
system.membus.snoopFanout::10                       1      0.00%    100.00% # Request fanout histogram (Count)
system.membus.snoopFanout::11                       0      0.00%    100.00% # Request fanout histogram (Count)
system.membus.snoopFanout::12                       0      0.00%    100.00% # Request fanout histogram (Count)
system.membus.snoopFanout::13                       0      0.00%    100.00% # Request fanout histogram (Count)
system.membus.snoopFanout::14                       0      0.00%    100.00% # Request fanout histogram (Count)
system.membus.snoopFanout::15                       0      0.00%    100.00% # Request fanout histogram (Count)
system.membus.snoopFanout::16                       0      0.00%    100.00% # Request fanout histogram (Count)
system.membus.snoopFanout::17                       0      0.00%    100.00% # Request fanout histogram (Count)
system.membus.snoopFanout::18                       0      0.00%    100.00% # Request fanout histogram (Count)
system.membus.snoopFanout::19                       0      0.00%    100.00% # Request fanout histogram (Count)
system.membus.snoopFanout::20                       0      0.00%    100.00% # Request fanout histogram (Count)
system.membus.snoopFanout::21                       0      0.00%    100.00% # Request fanout histogram (Count)
system.membus.snoopFanout::22                       0      0.00%    100.00% # Request fanout histogram (Count)
system.membus.snoopFanout::23                       0      0.00%    100.00% # Request fanout histogram (Count)
system.membus.snoopFanout::24                       0      0.00%    100.00% # Request fanout histogram (Count)
system.membus.snoopFanout::25                       0      0.00%    100.00% # Request fanout histogram (Count)
system.membus.snoopFanout::26                       0      0.00%    100.00% # Request fanout histogram (Count)
system.membus.snoopFanout::27                       0      0.00%    100.00% # Request fanout histogram (Count)
system.membus.snoopFanout::28                       0      0.00%    100.00% # Request fanout histogram (Count)
system.membus.snoopFanout::29                       0      0.00%    100.00% # Request fanout histogram (Count)
system.membus.snoopFanout::30                       0      0.00%    100.00% # Request fanout histogram (Count)
system.membus.snoopFanout::31                       0      0.00%    100.00% # Request fanout histogram (Count)
system.membus.snoopFanout::32                       0      0.00%    100.00% # Request fanout histogram (Count)
system.membus.snoopFanout::overflows                0      0.00%    100.00% # Request fanout histogram (Count)
system.membus.snoopFanout::min_value                0                       # Request fanout histogram (Count)
system.membus.snoopFanout::max_value               10                       # Request fanout histogram (Count)
system.membus.snoopFanout::total              5888098                       # Request fanout histogram (Count)
system.membus.power_state.pwrStateResidencyTicks::UNDEFINED  40698140500                       # Cumulative time (in ticks) in various power states (Tick)
system.membus.reqLayer16.occupancy         3263196590                       # Layer occupancy (ticks) (Tick)
system.membus.reqLayer16.utilization              0.1                       # Layer utilization (Ratio)
system.membus.reqLayer17.occupancy         3261705079                       # Layer occupancy (ticks) (Tick)
system.membus.reqLayer17.utilization              0.1                       # Layer utilization (Ratio)
system.membus.reqLayer18.occupancy         3263420070                       # Layer occupancy (ticks) (Tick)
system.membus.reqLayer18.utilization              0.1                       # Layer utilization (Ratio)
system.membus.reqLayer19.occupancy         3263518510                       # Layer occupancy (ticks) (Tick)
system.membus.reqLayer19.utilization              0.1                       # Layer utilization (Ratio)
system.membus.reqLayer20.occupancy         3262062169                       # Layer occupancy (ticks) (Tick)
system.membus.reqLayer20.utilization              0.1                       # Layer utilization (Ratio)
system.membus.reqLayer21.occupancy         3261558273                       # Layer occupancy (ticks) (Tick)
system.membus.reqLayer21.utilization              0.1                       # Layer utilization (Ratio)
system.membus.reqLayer22.occupancy         3262475614                       # Layer occupancy (ticks) (Tick)
system.membus.reqLayer22.utilization              0.1                       # Layer utilization (Ratio)
system.membus.reqLayer23.occupancy         3261836559                       # Layer occupancy (ticks) (Tick)
system.membus.reqLayer23.utilization              0.1                       # Layer utilization (Ratio)
system.membus.respLayer1.occupancy           13825246                       # Layer occupancy (ticks) (Tick)
system.membus.respLayer1.utilization              0.0                       # Layer utilization (Ratio)
system.membus.respLayer11.occupancy            707749                       # Layer occupancy (ticks) (Tick)
system.membus.respLayer11.utilization             0.0                       # Layer utilization (Ratio)
system.membus.respLayer12.occupancy        3515538903                       # Layer occupancy (ticks) (Tick)
system.membus.respLayer12.utilization             0.1                       # Layer utilization (Ratio)
system.membus.respLayer16.occupancy            654751                       # Layer occupancy (ticks) (Tick)
system.membus.respLayer16.utilization             0.0                       # Layer utilization (Ratio)
system.membus.respLayer17.occupancy        3524461878                       # Layer occupancy (ticks) (Tick)
system.membus.respLayer17.utilization             0.1                       # Layer utilization (Ratio)
system.membus.respLayer2.occupancy         5486028023                       # Layer occupancy (ticks) (Tick)
system.membus.respLayer2.utilization              0.1                       # Layer utilization (Ratio)
system.membus.respLayer21.occupancy            351999                       # Layer occupancy (ticks) (Tick)
system.membus.respLayer21.utilization             0.0                       # Layer utilization (Ratio)
system.membus.respLayer22.occupancy        3520568081                       # Layer occupancy (ticks) (Tick)
system.membus.respLayer22.utilization             0.1                       # Layer utilization (Ratio)
system.membus.respLayer26.occupancy            339000                       # Layer occupancy (ticks) (Tick)
system.membus.respLayer26.utilization             0.0                       # Layer utilization (Ratio)
system.membus.respLayer27.occupancy        3523534898                       # Layer occupancy (ticks) (Tick)
system.membus.respLayer27.utilization             0.1                       # Layer utilization (Ratio)
system.membus.respLayer31.occupancy            323500                       # Layer occupancy (ticks) (Tick)
system.membus.respLayer31.utilization             0.0                       # Layer utilization (Ratio)
system.membus.respLayer32.occupancy        3529163199                       # Layer occupancy (ticks) (Tick)
system.membus.respLayer32.utilization             0.1                       # Layer utilization (Ratio)
system.membus.respLayer36.occupancy            337000                       # Layer occupancy (ticks) (Tick)
system.membus.respLayer36.utilization             0.0                       # Layer utilization (Ratio)
system.membus.respLayer37.occupancy        3523414195                       # Layer occupancy (ticks) (Tick)
system.membus.respLayer37.utilization             0.1                       # Layer utilization (Ratio)
system.membus.respLayer6.occupancy             699249                       # Layer occupancy (ticks) (Tick)
system.membus.respLayer6.utilization              0.0                       # Layer utilization (Ratio)
system.membus.respLayer7.occupancy         3517882461                       # Layer occupancy (ticks) (Tick)
system.membus.respLayer7.utilization              0.1                       # Layer utilization (Ratio)
system.membus.snoop_filter.totRequests       11765360                       # Total number of requests made to the snoop filter. (Count)
system.membus.snoop_filter.hitSingleRequests      5877770                       # Number of requests hitting in the snoop filter with a single holder of the requested data. (Count)
system.membus.snoop_filter.hitMultiRequests        10497                       # Number of requests hitting in the snoop filter with multiple (>1) holders of the requested data. (Count)
system.membus.snoop_filter.totSnoops                0                       # Total number of snoops made to the snoop filter. (Count)
system.membus.snoop_filter.hitSingleSnoops            0                       # Number of snoops hitting in the snoop filter with a single holder of the requested data. (Count)
system.membus.snoop_filter.hitMultiSnoops            0                       # Number of snoops hitting in the snoop filter with multiple (>1) holders of the requested data. (Count)
system.voltage_domain.voltage                       1                       # Voltage in Volts (Volt)
system.workload.inst.arm                            0                       # number of arm instructions executed (Count)
system.workload.inst.quiesce                        0                       # number of quiesce instructions executed (Count)

---------- End Simulation Statistics   ----------
