
---------- Begin Simulation Statistics ----------
simSeconds                                   0.070792                       # Number of seconds simulated (Second)
simTicks                                  70792223750                       # Number of ticks simulated (Tick)
finalTick                                 70792223750                       # Number of ticks from beginning of simulation (restored from checkpoints and never reset) (Tick)
simFreq                                  1000000000000                       # The number of ticks per simulated second ((Tick/Second))
hostSeconds                                   2058.64                       # Real time elapsed on the host (Second)
hostTickRate                                 34387937                       # The number of ticks simulated per host second (ticks/s) ((Tick/Second))
hostMemory                                    7799476                       # Number of bytes of host memory used (Byte)
simInsts                                    102525999                       # Number of instructions simulated (Count)
simOps                                      184676362                       # Number of ops (including micro ops) simulated (Count)
hostInstRate                                    49803                       # Simulator instruction rate (inst/s) ((Count/Second))
hostOpRate                                      89708                       # Simulator op (including micro ops) rate (op/s) ((Count/Second))
system.clk_domain.clock                          1000                       # Clock period in ticks (Tick)
system.cpu0.numCycles                       283168896                       # Number of cpu cycles simulated (Cycle)
system.cpu0.numWorkItemsStarted                     0                       # Number of work items this cpu started (Count)
system.cpu0.numWorkItemsCompleted                   0                       # Number of work items this cpu completed (Count)
system.cpu0.instsAdded                      117319040                       # Number of instructions added to the IQ (excludes non-spec) (Count)
system.cpu0.nonSpecInstsAdded                    1223                       # Number of non-speculative instructions added to the IQ (Count)
system.cpu0.instsIssued                     117206794                       # Number of instructions issued (Count)
system.cpu0.squashedInstsIssued                  2079                       # Number of squashed instructions issued (Count)
system.cpu0.squashedInstsExamined            48356883                       # Number of squashed instructions iterated over during squash; mainly for profiling (Count)
system.cpu0.squashedOperandsExamined           742049                       # Number of squashed operands that are examined and possibly removed from graph (Count)
system.cpu0.squashedNonSpecRemoved                427                       # Number of squashed non-spec instructions that were removed (Count)
system.cpu0.numIssuedDist::samples          282772272                       # Number of insts issued each cycle (Count)
system.cpu0.numIssuedDist::mean              0.414492                       # Number of insts issued each cycle (Count)
system.cpu0.numIssuedDist::stdev             1.396976                       # Number of insts issued each cycle (Count)
system.cpu0.numIssuedDist::underflows               0      0.00%      0.00% # Number of insts issued each cycle (Count)
system.cpu0.numIssuedDist::0                249500840     88.23%     88.23% # Number of insts issued each cycle (Count)
system.cpu0.numIssuedDist::1                  9296375      3.29%     91.52% # Number of insts issued each cycle (Count)
system.cpu0.numIssuedDist::2                  6234755      2.20%     93.73% # Number of insts issued each cycle (Count)
system.cpu0.numIssuedDist::3                  2907909      1.03%     94.75% # Number of insts issued each cycle (Count)
system.cpu0.numIssuedDist::4                  3860325      1.37%     96.12% # Number of insts issued each cycle (Count)
system.cpu0.numIssuedDist::5                  3099218      1.10%     97.22% # Number of insts issued each cycle (Count)
system.cpu0.numIssuedDist::6                  2476790      0.88%     98.09% # Number of insts issued each cycle (Count)
system.cpu0.numIssuedDist::7                  2249428      0.80%     98.89% # Number of insts issued each cycle (Count)
system.cpu0.numIssuedDist::8                  3146632      1.11%    100.00% # Number of insts issued each cycle (Count)
system.cpu0.numIssuedDist::overflows                0      0.00%    100.00% # Number of insts issued each cycle (Count)
system.cpu0.numIssuedDist::min_value                0                       # Number of insts issued each cycle (Count)
system.cpu0.numIssuedDist::max_value                8                       # Number of insts issued each cycle (Count)
system.cpu0.numIssuedDist::total            282772272                       # Number of insts issued each cycle (Count)
system.cpu0.statFuBusy::No_OpClass                  0      0.00%      0.00% # attempts to use FU when none available (Count)
system.cpu0.statFuBusy::IntAlu                  66652      0.87%      0.87% # attempts to use FU when none available (Count)
system.cpu0.statFuBusy::IntMult                     0      0.00%      0.87% # attempts to use FU when none available (Count)
system.cpu0.statFuBusy::IntDiv                      0      0.00%      0.87% # attempts to use FU when none available (Count)
system.cpu0.statFuBusy::FloatAdd                    0      0.00%      0.87% # attempts to use FU when none available (Count)
system.cpu0.statFuBusy::FloatCmp                    0      0.00%      0.87% # attempts to use FU when none available (Count)
system.cpu0.statFuBusy::FloatCvt                    8      0.00%      0.87% # attempts to use FU when none available (Count)
system.cpu0.statFuBusy::FloatMult                   0      0.00%      0.87% # attempts to use FU when none available (Count)
system.cpu0.statFuBusy::FloatMultAcc                0      0.00%      0.87% # attempts to use FU when none available (Count)
system.cpu0.statFuBusy::FloatDiv                    0      0.00%      0.87% # attempts to use FU when none available (Count)
system.cpu0.statFuBusy::FloatMisc                   0      0.00%      0.87% # attempts to use FU when none available (Count)
system.cpu0.statFuBusy::FloatSqrt                   0      0.00%      0.87% # attempts to use FU when none available (Count)
system.cpu0.statFuBusy::SimdAdd                     2      0.00%      0.87% # attempts to use FU when none available (Count)
system.cpu0.statFuBusy::SimdAddAcc                  0      0.00%      0.87% # attempts to use FU when none available (Count)
system.cpu0.statFuBusy::SimdAlu                   109      0.00%      0.87% # attempts to use FU when none available (Count)
system.cpu0.statFuBusy::SimdCmp                     0      0.00%      0.87% # attempts to use FU when none available (Count)
system.cpu0.statFuBusy::SimdCvt                    87      0.00%      0.87% # attempts to use FU when none available (Count)
system.cpu0.statFuBusy::SimdMisc                   49      0.00%      0.87% # attempts to use FU when none available (Count)
system.cpu0.statFuBusy::SimdMult                    0      0.00%      0.87% # attempts to use FU when none available (Count)
system.cpu0.statFuBusy::SimdMultAcc                 0      0.00%      0.87% # attempts to use FU when none available (Count)
system.cpu0.statFuBusy::SimdShift                  15      0.00%      0.87% # attempts to use FU when none available (Count)
system.cpu0.statFuBusy::SimdShiftAcc                0      0.00%      0.87% # attempts to use FU when none available (Count)
system.cpu0.statFuBusy::SimdDiv                     0      0.00%      0.87% # attempts to use FU when none available (Count)
system.cpu0.statFuBusy::SimdSqrt                    0      0.00%      0.87% # attempts to use FU when none available (Count)
system.cpu0.statFuBusy::SimdFloatAdd           617593      8.03%      8.90% # attempts to use FU when none available (Count)
system.cpu0.statFuBusy::SimdFloatAlu                0      0.00%      8.90% # attempts to use FU when none available (Count)
system.cpu0.statFuBusy::SimdFloatCmp                0      0.00%      8.90% # attempts to use FU when none available (Count)
system.cpu0.statFuBusy::SimdFloatCvt                0      0.00%      8.90% # attempts to use FU when none available (Count)
system.cpu0.statFuBusy::SimdFloatDiv                0      0.00%      8.90% # attempts to use FU when none available (Count)
system.cpu0.statFuBusy::SimdFloatMisc               0      0.00%      8.90% # attempts to use FU when none available (Count)
system.cpu0.statFuBusy::SimdFloatMult               0      0.00%      8.90% # attempts to use FU when none available (Count)
system.cpu0.statFuBusy::SimdFloatMultAcc            0      0.00%      8.90% # attempts to use FU when none available (Count)
system.cpu0.statFuBusy::SimdFloatSqrt               0      0.00%      8.90% # attempts to use FU when none available (Count)
system.cpu0.statFuBusy::SimdReduceAdd               0      0.00%      8.90% # attempts to use FU when none available (Count)
system.cpu0.statFuBusy::SimdReduceAlu               0      0.00%      8.90% # attempts to use FU when none available (Count)
system.cpu0.statFuBusy::SimdReduceCmp               0      0.00%      8.90% # attempts to use FU when none available (Count)
system.cpu0.statFuBusy::SimdFloatReduceAdd            0      0.00%      8.90% # attempts to use FU when none available (Count)
system.cpu0.statFuBusy::SimdFloatReduceCmp            0      0.00%      8.90% # attempts to use FU when none available (Count)
system.cpu0.statFuBusy::SimdAes                     0      0.00%      8.90% # attempts to use FU when none available (Count)
system.cpu0.statFuBusy::SimdAesMix                  0      0.00%      8.90% # attempts to use FU when none available (Count)
system.cpu0.statFuBusy::SimdSha1Hash                0      0.00%      8.90% # attempts to use FU when none available (Count)
system.cpu0.statFuBusy::SimdSha1Hash2               0      0.00%      8.90% # attempts to use FU when none available (Count)
system.cpu0.statFuBusy::SimdSha256Hash              0      0.00%      8.90% # attempts to use FU when none available (Count)
system.cpu0.statFuBusy::SimdSha256Hash2             0      0.00%      8.90% # attempts to use FU when none available (Count)
system.cpu0.statFuBusy::SimdShaSigma2               0      0.00%      8.90% # attempts to use FU when none available (Count)
system.cpu0.statFuBusy::SimdShaSigma3               0      0.00%      8.90% # attempts to use FU when none available (Count)
system.cpu0.statFuBusy::SimdPredAlu                 0      0.00%      8.90% # attempts to use FU when none available (Count)
system.cpu0.statFuBusy::MemRead                751524      9.77%     18.68% # attempts to use FU when none available (Count)
system.cpu0.statFuBusy::MemWrite              1750901     22.77%     41.45% # attempts to use FU when none available (Count)
system.cpu0.statFuBusy::FloatMemRead          3876324     50.42%     91.87% # attempts to use FU when none available (Count)
system.cpu0.statFuBusy::FloatMemWrite          625221      8.13%    100.00% # attempts to use FU when none available (Count)
system.cpu0.statFuBusy::IprAccess                   0      0.00%    100.00% # attempts to use FU when none available (Count)
system.cpu0.statFuBusy::InstPrefetch                0      0.00%    100.00% # attempts to use FU when none available (Count)
system.cpu0.statIssuedInstType_0::No_OpClass      5515272      4.71%      4.71% # Number of instructions issued per FU type, per thread (Count)
system.cpu0.statIssuedInstType_0::IntAlu     47310755     40.37%     45.07% # Number of instructions issued per FU type, per thread (Count)
system.cpu0.statIssuedInstType_0::IntMult          282      0.00%     45.07% # Number of instructions issued per FU type, per thread (Count)
system.cpu0.statIssuedInstType_0::IntDiv         3066      0.00%     45.07% # Number of instructions issued per FU type, per thread (Count)
system.cpu0.statIssuedInstType_0::FloatAdd      4255799      3.63%     48.70% # Number of instructions issued per FU type, per thread (Count)
system.cpu0.statIssuedInstType_0::FloatCmp            0      0.00%     48.70% # Number of instructions issued per FU type, per thread (Count)
system.cpu0.statIssuedInstType_0::FloatCvt          502      0.00%     48.71% # Number of instructions issued per FU type, per thread (Count)
system.cpu0.statIssuedInstType_0::FloatMult            0      0.00%     48.71% # Number of instructions issued per FU type, per thread (Count)
system.cpu0.statIssuedInstType_0::FloatMultAcc            0      0.00%     48.71% # Number of instructions issued per FU type, per thread (Count)
system.cpu0.statIssuedInstType_0::FloatDiv            0      0.00%     48.71% # Number of instructions issued per FU type, per thread (Count)
system.cpu0.statIssuedInstType_0::FloatMisc            0      0.00%     48.71% # Number of instructions issued per FU type, per thread (Count)
system.cpu0.statIssuedInstType_0::FloatSqrt            0      0.00%     48.71% # Number of instructions issued per FU type, per thread (Count)
system.cpu0.statIssuedInstType_0::SimdAdd         2681      0.00%     48.71% # Number of instructions issued per FU type, per thread (Count)
system.cpu0.statIssuedInstType_0::SimdAddAcc            0      0.00%     48.71% # Number of instructions issued per FU type, per thread (Count)
system.cpu0.statIssuedInstType_0::SimdAlu        32389      0.03%     48.74% # Number of instructions issued per FU type, per thread (Count)
system.cpu0.statIssuedInstType_0::SimdCmp           68      0.00%     48.74% # Number of instructions issued per FU type, per thread (Count)
system.cpu0.statIssuedInstType_0::SimdCvt         6177      0.01%     48.74% # Number of instructions issued per FU type, per thread (Count)
system.cpu0.statIssuedInstType_0::SimdMisc         4077      0.00%     48.74% # Number of instructions issued per FU type, per thread (Count)
system.cpu0.statIssuedInstType_0::SimdMult            0      0.00%     48.74% # Number of instructions issued per FU type, per thread (Count)
system.cpu0.statIssuedInstType_0::SimdMultAcc            0      0.00%     48.74% # Number of instructions issued per FU type, per thread (Count)
system.cpu0.statIssuedInstType_0::SimdShift         1512      0.00%     48.75% # Number of instructions issued per FU type, per thread (Count)
system.cpu0.statIssuedInstType_0::SimdShiftAcc            0      0.00%     48.75% # Number of instructions issued per FU type, per thread (Count)
system.cpu0.statIssuedInstType_0::SimdDiv            0      0.00%     48.75% # Number of instructions issued per FU type, per thread (Count)
system.cpu0.statIssuedInstType_0::SimdSqrt            0      0.00%     48.75% # Number of instructions issued per FU type, per thread (Count)
system.cpu0.statIssuedInstType_0::SimdFloatAdd      8259098      7.05%     55.79% # Number of instructions issued per FU type, per thread (Count)
system.cpu0.statIssuedInstType_0::SimdFloatAlu            0      0.00%     55.79% # Number of instructions issued per FU type, per thread (Count)
system.cpu0.statIssuedInstType_0::SimdFloatCmp           28      0.00%     55.79% # Number of instructions issued per FU type, per thread (Count)
system.cpu0.statIssuedInstType_0::SimdFloatCvt      3017908      2.57%     58.37% # Number of instructions issued per FU type, per thread (Count)
system.cpu0.statIssuedInstType_0::SimdFloatDiv           18      0.00%     58.37% # Number of instructions issued per FU type, per thread (Count)
system.cpu0.statIssuedInstType_0::SimdFloatMisc            0      0.00%     58.37% # Number of instructions issued per FU type, per thread (Count)
system.cpu0.statIssuedInstType_0::SimdFloatMult      2006624      1.71%     60.08% # Number of instructions issued per FU type, per thread (Count)
system.cpu0.statIssuedInstType_0::SimdFloatMultAcc            0      0.00%     60.08% # Number of instructions issued per FU type, per thread (Count)
system.cpu0.statIssuedInstType_0::SimdFloatSqrt            0      0.00%     60.08% # Number of instructions issued per FU type, per thread (Count)
system.cpu0.statIssuedInstType_0::SimdReduceAdd            0      0.00%     60.08% # Number of instructions issued per FU type, per thread (Count)
system.cpu0.statIssuedInstType_0::SimdReduceAlu            0      0.00%     60.08% # Number of instructions issued per FU type, per thread (Count)
system.cpu0.statIssuedInstType_0::SimdReduceCmp            0      0.00%     60.08% # Number of instructions issued per FU type, per thread (Count)
system.cpu0.statIssuedInstType_0::SimdFloatReduceAdd            0      0.00%     60.08% # Number of instructions issued per FU type, per thread (Count)
system.cpu0.statIssuedInstType_0::SimdFloatReduceCmp            0      0.00%     60.08% # Number of instructions issued per FU type, per thread (Count)
system.cpu0.statIssuedInstType_0::SimdAes            0      0.00%     60.08% # Number of instructions issued per FU type, per thread (Count)
system.cpu0.statIssuedInstType_0::SimdAesMix            0      0.00%     60.08% # Number of instructions issued per FU type, per thread (Count)
system.cpu0.statIssuedInstType_0::SimdSha1Hash            0      0.00%     60.08% # Number of instructions issued per FU type, per thread (Count)
system.cpu0.statIssuedInstType_0::SimdSha1Hash2            0      0.00%     60.08% # Number of instructions issued per FU type, per thread (Count)
system.cpu0.statIssuedInstType_0::SimdSha256Hash            0      0.00%     60.08% # Number of instructions issued per FU type, per thread (Count)
system.cpu0.statIssuedInstType_0::SimdSha256Hash2            0      0.00%     60.08% # Number of instructions issued per FU type, per thread (Count)
system.cpu0.statIssuedInstType_0::SimdShaSigma2            0      0.00%     60.08% # Number of instructions issued per FU type, per thread (Count)
system.cpu0.statIssuedInstType_0::SimdShaSigma3            0      0.00%     60.08% # Number of instructions issued per FU type, per thread (Count)
system.cpu0.statIssuedInstType_0::SimdPredAlu            0      0.00%     60.08% # Number of instructions issued per FU type, per thread (Count)
system.cpu0.statIssuedInstType_0::MemRead      2929453      2.50%     62.58% # Number of instructions issued per FU type, per thread (Count)
system.cpu0.statIssuedInstType_0::MemWrite      6308348      5.38%     67.96% # Number of instructions issued per FU type, per thread (Count)
system.cpu0.statIssuedInstType_0::FloatMemRead     22298567     19.02%     86.99% # Number of instructions issued per FU type, per thread (Count)
system.cpu0.statIssuedInstType_0::FloatMemWrite     15254170     13.01%    100.00% # Number of instructions issued per FU type, per thread (Count)
system.cpu0.statIssuedInstType_0::IprAccess            0      0.00%    100.00% # Number of instructions issued per FU type, per thread (Count)
system.cpu0.statIssuedInstType_0::InstPrefetch            0      0.00%    100.00% # Number of instructions issued per FU type, per thread (Count)
system.cpu0.statIssuedInstType_0::total     117206794                       # Number of instructions issued per FU type, per thread (Count)
system.cpu0.issueRate                        0.413911                       # Inst issue rate ((Count/Cycle))
system.cpu0.fuBusy                            7688485                       # FU busy when requested (Count)
system.cpu0.fuBusyRate                       0.065598                       # FU busy rate (busy events/executed inst) ((Count/Count))
system.cpu0.intInstQueueReads               401402061                       # Number of integer instruction queue reads (Count)
system.cpu0.intInstQueueWrites               85935834                       # Number of integer instruction queue writes (Count)
system.cpu0.intInstQueueWakeupAccesses       52511495                       # Number of integer instruction queue wakeup accesses (Count)
system.cpu0.fpInstQueueReads                123474363                       # Number of floating instruction queue reads (Count)
system.cpu0.fpInstQueueWrites                79741650                       # Number of floating instruction queue writes (Count)
system.cpu0.fpInstQueueWakeupAccesses        59135346                       # Number of floating instruction queue wakeup accesses (Count)
system.cpu0.vecInstQueueReads                       0                       # Number of vector instruction queue reads (Count)
system.cpu0.vecInstQueueWrites                      0                       # Number of vector instruction queue writes (Count)
system.cpu0.vecInstQueueWakeupAccesses              0                       # Number of vector instruction queue wakeup accesses (Count)
system.cpu0.intAluAccesses                   55057773                       # Number of integer alu accesses (Count)
system.cpu0.fpAluAccesses                    64322234                       # Number of floating point alu accesses (Count)
system.cpu0.vecAluAccesses                          0                       # Number of vector alu accesses (Count)
system.cpu0.numInsts                        117180589                       # Number of executed instructions (Count)
system.cpu0.numLoadInsts                     25222074                       # Number of load instructions executed (Count)
system.cpu0.numSquashedInsts                    26205                       # Number of squashed instructions skipped in execute (Count)
system.cpu0.numSwp                                  0                       # Number of swp insts executed (Count)
system.cpu0.numNop                                  0                       # Number of nop insts executed (Count)
system.cpu0.numRefs                          46783576                       # Number of memory reference insts executed (Count)
system.cpu0.numBranches                       6641855                       # Number of branches executed (Count)
system.cpu0.numStoreInsts                    21561502                       # Number of stores executed (Count)
system.cpu0.numRate                          0.413819                       # Inst execution rate ((Count/Cycle))
system.cpu0.timesIdled                           1732                       # Number of times that the entire CPU went into an idle state and unscheduled itself (Count)
system.cpu0.idleCycles                         396624                       # Total number of cycles that the CPU has spent unscheduled due to idling (Cycle)
system.cpu0.committedInsts                   37823691                       # Number of Instructions Simulated (Count)
system.cpu0.committedOps                     68963374                       # Number of Ops (including micro ops) Simulated (Count)
system.cpu0.cpi                              7.486548                       # CPI: Cycles Per Instruction ((Cycle/Count))
system.cpu0.totalCpi                         7.486548                       # CPI: Total CPI of All Threads ((Cycle/Count))
system.cpu0.ipc                              0.133573                       # IPC: Instructions Per Cycle ((Count/Cycle))
system.cpu0.totalIpc                         0.133573                       # IPC: Total IPC of All Threads ((Count/Cycle))
system.cpu0.intRegfileReads                  90633183                       # Number of integer regfile reads (Count)
system.cpu0.intRegfileWrites                 33209638                       # Number of integer regfile writes (Count)
system.cpu0.fpRegfileReads                   60200641                       # Number of floating regfile reads (Count)
system.cpu0.fpRegfileWrites                  40873680                       # Number of floating regfile writes (Count)
system.cpu0.ccRegfileReads                   39154313                       # number of cc regfile reads (Count)
system.cpu0.ccRegfileWrites                  29071385                       # number of cc regfile writes (Count)
system.cpu0.miscRegfileReads                 60086805                       # number of misc regfile reads (Count)
system.cpu0.miscRegfileWrites                     234                       # number of misc regfile writes (Count)
system.cpu0.MemDepUnit__0.insertedLoads      25226971                       # Number of loads inserted to the mem dependence unit. (Count)
system.cpu0.MemDepUnit__0.insertedStores     21568012                       # Number of stores inserted to the mem dependence unit. (Count)
system.cpu0.MemDepUnit__0.conflictingLoads       254112                       # Number of conflicting loads. (Count)
system.cpu0.MemDepUnit__0.conflictingStores       253233                       # Number of conflicting stores. (Count)
system.cpu0.MemDepUnit__1.insertedLoads             0                       # Number of loads inserted to the mem dependence unit. (Count)
system.cpu0.MemDepUnit__1.insertedStores            0                       # Number of stores inserted to the mem dependence unit. (Count)
system.cpu0.MemDepUnit__1.conflictingLoads            0                       # Number of conflicting loads. (Count)
system.cpu0.MemDepUnit__1.conflictingStores            0                       # Number of conflicting stores. (Count)
system.cpu0.MemDepUnit__2.insertedLoads             0                       # Number of loads inserted to the mem dependence unit. (Count)
system.cpu0.MemDepUnit__2.insertedStores            0                       # Number of stores inserted to the mem dependence unit. (Count)
system.cpu0.MemDepUnit__2.conflictingLoads            0                       # Number of conflicting loads. (Count)
system.cpu0.MemDepUnit__2.conflictingStores            0                       # Number of conflicting stores. (Count)
system.cpu0.MemDepUnit__3.insertedLoads             0                       # Number of loads inserted to the mem dependence unit. (Count)
system.cpu0.MemDepUnit__3.insertedStores            0                       # Number of stores inserted to the mem dependence unit. (Count)
system.cpu0.MemDepUnit__3.conflictingLoads            0                       # Number of conflicting loads. (Count)
system.cpu0.MemDepUnit__3.conflictingStores            0                       # Number of conflicting stores. (Count)
system.cpu0.branchPred.lookups                7443298                       # Number of BP lookups (Count)
system.cpu0.branchPred.condPredicted          7392211                       # Number of conditional branches predicted (Count)
system.cpu0.branchPred.condIncorrect             8886                       # Number of conditional branches incorrect (Count)
system.cpu0.branchPred.BTBLookups             4316122                       # Number of BTB lookups (Count)
system.cpu0.branchPred.BTBHits                4312381                       # Number of BTB hits (Count)
system.cpu0.branchPred.BTBHitRatio           0.999133                       # BTB Hit Ratio (Ratio)
system.cpu0.branchPred.RASUsed                  19273                       # Number of times the RAS was used to get a target. (Count)
system.cpu0.branchPred.RASIncorrect                 9                       # Number of incorrect RAS predictions. (Count)
system.cpu0.branchPred.indirectLookups           9415                       # Number of indirect predictor lookups. (Count)
system.cpu0.branchPred.indirectHits              5607                       # Number of indirect target hits. (Count)
system.cpu0.branchPred.indirectMisses            3808                       # Number of indirect misses. (Count)
system.cpu0.branchPred.indirectMispredicted          814                       # Number of mispredicted indirect branches. (Count)
system.cpu0.commit.commitSquashedInsts       42755398                       # The number of squashed insts skipped by commit (Count)
system.cpu0.commit.commitNonSpecStalls            796                       # The number of times commit has been forced to stall to communicate backwards (Count)
system.cpu0.commit.branchMispredicts             8734                       # The number of times a branch was mispredicted (Count)
system.cpu0.commit.numCommittedDist::samples    277073873                       # Number of insts commited each cycle (Count)
system.cpu0.commit.numCommittedDist::mean     0.248899                       # Number of insts commited each cycle (Count)
system.cpu0.commit.numCommittedDist::stdev     1.239117                       # Number of insts commited each cycle (Count)
system.cpu0.commit.numCommittedDist::underflows            0      0.00%      0.00% # Number of insts commited each cycle (Count)
system.cpu0.commit.numCommittedDist::0      261567508     94.40%     94.40% # Number of insts commited each cycle (Count)
system.cpu0.commit.numCommittedDist::1        4124452      1.49%     95.89% # Number of insts commited each cycle (Count)
system.cpu0.commit.numCommittedDist::2        1619335      0.58%     96.48% # Number of insts commited each cycle (Count)
system.cpu0.commit.numCommittedDist::3        1379601      0.50%     96.97% # Number of insts commited each cycle (Count)
system.cpu0.commit.numCommittedDist::4        2130054      0.77%     97.74% # Number of insts commited each cycle (Count)
system.cpu0.commit.numCommittedDist::5         243014      0.09%     97.83% # Number of insts commited each cycle (Count)
system.cpu0.commit.numCommittedDist::6          37693      0.01%     97.84% # Number of insts commited each cycle (Count)
system.cpu0.commit.numCommittedDist::7         277723      0.10%     97.94% # Number of insts commited each cycle (Count)
system.cpu0.commit.numCommittedDist::8        5694493      2.06%    100.00% # Number of insts commited each cycle (Count)
system.cpu0.commit.numCommittedDist::overflows            0      0.00%    100.00% # Number of insts commited each cycle (Count)
system.cpu0.commit.numCommittedDist::min_value            0                       # Number of insts commited each cycle (Count)
system.cpu0.commit.numCommittedDist::max_value            8                       # Number of insts commited each cycle (Count)
system.cpu0.commit.numCommittedDist::total    277073873                       # Number of insts commited each cycle (Count)
system.cpu0.commit.instsCommitted            37823691                       # Number of instructions committed (Count)
system.cpu0.commit.opsCommitted              68963374                       # Number of ops (including micro ops) committed (Count)
system.cpu0.commit.memRefs                   18180279                       # Number of memory references committed (Count)
system.cpu0.commit.loads                     12634208                       # Number of loads committed (Count)
system.cpu0.commit.amos                             0                       # Number of atomic instructions committed (Count)
system.cpu0.commit.membars                        372                       # Number of memory barriers committed (Count)
system.cpu0.commit.branches                   5352410                       # Number of branches committed (Count)
system.cpu0.commit.vectorInstructions               0                       # Number of committed Vector instructions. (Count)
system.cpu0.commit.floating                  38568528                       # Number of committed floating point instructions. (Count)
system.cpu0.commit.integer                   47394534                       # Number of committed integer instructions. (Count)
system.cpu0.commit.functionCalls                 8031                       # Number of function calls committed. (Count)
system.cpu0.commit.committedInstType_0::No_OpClass         6726      0.01%      0.01% # Class of committed instruction (Count)
system.cpu0.commit.committedInstType_0::IntAlu     33232794     48.19%     48.20% # Class of committed instruction (Count)
system.cpu0.commit.committedInstType_0::IntMult          256      0.00%     48.20% # Class of committed instruction (Count)
system.cpu0.commit.committedInstType_0::IntDiv         2811      0.00%     48.20% # Class of committed instruction (Count)
system.cpu0.commit.committedInstType_0::FloatAdd      4252913      6.17%     54.37% # Class of committed instruction (Count)
system.cpu0.commit.committedInstType_0::FloatCmp            0      0.00%     54.37% # Class of committed instruction (Count)
system.cpu0.commit.committedInstType_0::FloatCvt          416      0.00%     54.37% # Class of committed instruction (Count)
system.cpu0.commit.committedInstType_0::FloatMult            0      0.00%     54.37% # Class of committed instruction (Count)
system.cpu0.commit.committedInstType_0::FloatMultAcc            0      0.00%     54.37% # Class of committed instruction (Count)
system.cpu0.commit.committedInstType_0::FloatDiv            0      0.00%     54.37% # Class of committed instruction (Count)
system.cpu0.commit.committedInstType_0::FloatMisc            0      0.00%     54.37% # Class of committed instruction (Count)
system.cpu0.commit.committedInstType_0::FloatSqrt            0      0.00%     54.37% # Class of committed instruction (Count)
system.cpu0.commit.committedInstType_0::SimdAdd         2098      0.00%     54.37% # Class of committed instruction (Count)
system.cpu0.commit.committedInstType_0::SimdAddAcc            0      0.00%     54.37% # Class of committed instruction (Count)
system.cpu0.commit.committedInstType_0::SimdAlu        12636      0.02%     54.39% # Class of committed instruction (Count)
system.cpu0.commit.committedInstType_0::SimdCmp           66      0.00%     54.39% # Class of committed instruction (Count)
system.cpu0.commit.committedInstType_0::SimdCvt         4504      0.01%     54.40% # Class of committed instruction (Count)
system.cpu0.commit.committedInstType_0::SimdMisc         3427      0.00%     54.40% # Class of committed instruction (Count)
system.cpu0.commit.committedInstType_0::SimdMult            0      0.00%     54.40% # Class of committed instruction (Count)
system.cpu0.commit.committedInstType_0::SimdMultAcc            0      0.00%     54.40% # Class of committed instruction (Count)
system.cpu0.commit.committedInstType_0::SimdShift          727      0.00%     54.40% # Class of committed instruction (Count)
system.cpu0.commit.committedInstType_0::SimdShiftAcc            0      0.00%     54.40% # Class of committed instruction (Count)
system.cpu0.commit.committedInstType_0::SimdDiv            0      0.00%     54.40% # Class of committed instruction (Count)
system.cpu0.commit.committedInstType_0::SimdSqrt            0      0.00%     54.40% # Class of committed instruction (Count)
system.cpu0.commit.committedInstType_0::SimdFloatAdd      8254546     11.97%     66.37% # Class of committed instruction (Count)
system.cpu0.commit.committedInstType_0::SimdFloatAlu            0      0.00%     66.37% # Class of committed instruction (Count)
system.cpu0.commit.committedInstType_0::SimdFloatCmp           24      0.00%     66.37% # Class of committed instruction (Count)
system.cpu0.commit.committedInstType_0::SimdFloatCvt      3006832      4.36%     70.73% # Class of committed instruction (Count)
system.cpu0.commit.committedInstType_0::SimdFloatDiv           15      0.00%     70.73% # Class of committed instruction (Count)
system.cpu0.commit.committedInstType_0::SimdFloatMisc            0      0.00%     70.73% # Class of committed instruction (Count)
system.cpu0.commit.committedInstType_0::SimdFloatMult      2002304      2.90%     73.64% # Class of committed instruction (Count)
system.cpu0.commit.committedInstType_0::SimdFloatMultAcc            0      0.00%     73.64% # Class of committed instruction (Count)
system.cpu0.commit.committedInstType_0::SimdFloatSqrt            0      0.00%     73.64% # Class of committed instruction (Count)
system.cpu0.commit.committedInstType_0::SimdReduceAdd            0      0.00%     73.64% # Class of committed instruction (Count)
system.cpu0.commit.committedInstType_0::SimdReduceAlu            0      0.00%     73.64% # Class of committed instruction (Count)
system.cpu0.commit.committedInstType_0::SimdReduceCmp            0      0.00%     73.64% # Class of committed instruction (Count)
system.cpu0.commit.committedInstType_0::SimdFloatReduceAdd            0      0.00%     73.64% # Class of committed instruction (Count)
system.cpu0.commit.committedInstType_0::SimdFloatReduceCmp            0      0.00%     73.64% # Class of committed instruction (Count)
system.cpu0.commit.committedInstType_0::SimdAes            0      0.00%     73.64% # Class of committed instruction (Count)
system.cpu0.commit.committedInstType_0::SimdAesMix            0      0.00%     73.64% # Class of committed instruction (Count)
system.cpu0.commit.committedInstType_0::SimdSha1Hash            0      0.00%     73.64% # Class of committed instruction (Count)
system.cpu0.commit.committedInstType_0::SimdSha1Hash2            0      0.00%     73.64% # Class of committed instruction (Count)
system.cpu0.commit.committedInstType_0::SimdSha256Hash            0      0.00%     73.64% # Class of committed instruction (Count)
system.cpu0.commit.committedInstType_0::SimdSha256Hash2            0      0.00%     73.64% # Class of committed instruction (Count)
system.cpu0.commit.committedInstType_0::SimdShaSigma2            0      0.00%     73.64% # Class of committed instruction (Count)
system.cpu0.commit.committedInstType_0::SimdShaSigma3            0      0.00%     73.64% # Class of committed instruction (Count)
system.cpu0.commit.committedInstType_0::SimdPredAlu            0      0.00%     73.64% # Class of committed instruction (Count)
system.cpu0.commit.committedInstType_0::MemRead       365999      0.53%     74.17% # Class of committed instruction (Count)
system.cpu0.commit.committedInstType_0::MemWrite       791735      1.15%     75.32% # Class of committed instruction (Count)
system.cpu0.commit.committedInstType_0::FloatMemRead     12268209     17.79%     93.11% # Class of committed instruction (Count)
system.cpu0.commit.committedInstType_0::FloatMemWrite      4754336      6.89%    100.00% # Class of committed instruction (Count)
system.cpu0.commit.committedInstType_0::IprAccess            0      0.00%    100.00% # Class of committed instruction (Count)
system.cpu0.commit.committedInstType_0::InstPrefetch            0      0.00%    100.00% # Class of committed instruction (Count)
system.cpu0.commit.committedInstType_0::total     68963374                       # Class of committed instruction (Count)
system.cpu0.commit.commitEligibleSamples      5694493                       # number cycles where commit BW limit reached (Cycle)
system.cpu0.dcache.demandHits::cpu0.data     20248451                       # number of demand (read+write) hits (Count)
system.cpu0.dcache.demandHits::total         20248451                       # number of demand (read+write) hits (Count)
system.cpu0.dcache.overallHits::cpu0.data     22865729                       # number of overall hits (Count)
system.cpu0.dcache.overallHits::total        22865729                       # number of overall hits (Count)
system.cpu0.dcache.demandMisses::cpu0.data      7238303                       # number of demand (read+write) misses (Count)
system.cpu0.dcache.demandMisses::total        7238303                       # number of demand (read+write) misses (Count)
system.cpu0.dcache.overallMisses::cpu0.data      7370849                       # number of overall misses (Count)
system.cpu0.dcache.overallMisses::total       7370849                       # number of overall misses (Count)
system.cpu0.dcache.demandMissLatency::cpu0.data 268397715991                       # number of demand (read+write) miss ticks (Tick)
system.cpu0.dcache.demandMissLatency::total 268397715991                       # number of demand (read+write) miss ticks (Tick)
system.cpu0.dcache.overallMissLatency::cpu0.data 268397715991                       # number of overall miss ticks (Tick)
system.cpu0.dcache.overallMissLatency::total 268397715991                       # number of overall miss ticks (Tick)
system.cpu0.dcache.demandAccesses::cpu0.data     27486754                       # number of demand (read+write) accesses (Count)
system.cpu0.dcache.demandAccesses::total     27486754                       # number of demand (read+write) accesses (Count)
system.cpu0.dcache.overallAccesses::cpu0.data     30236578                       # number of overall (read+write) accesses (Count)
system.cpu0.dcache.overallAccesses::total     30236578                       # number of overall (read+write) accesses (Count)
system.cpu0.dcache.demandMissRate::cpu0.data     0.263338                       # miss rate for demand accesses (Ratio)
system.cpu0.dcache.demandMissRate::total     0.263338                       # miss rate for demand accesses (Ratio)
system.cpu0.dcache.overallMissRate::cpu0.data     0.243773                       # miss rate for overall accesses (Ratio)
system.cpu0.dcache.overallMissRate::total     0.243773                       # miss rate for overall accesses (Ratio)
system.cpu0.dcache.demandAvgMissLatency::cpu0.data 37080.199045                       # average overall miss latency in ticks ((Tick/Count))
system.cpu0.dcache.demandAvgMissLatency::total 37080.199045                       # average overall miss latency in ticks ((Tick/Count))
system.cpu0.dcache.overallAvgMissLatency::cpu0.data 36413.405836                       # average overall miss latency ((Tick/Count))
system.cpu0.dcache.overallAvgMissLatency::total 36413.405836                       # average overall miss latency ((Tick/Count))
system.cpu0.dcache.blockedCycles::no_mshrs      6071150                       # number of cycles access was blocked (Cycle)
system.cpu0.dcache.blockedCycles::no_targets         2505                       # number of cycles access was blocked (Cycle)
system.cpu0.dcache.blockedCauses::no_mshrs       249750                       # number of times access was blocked (Count)
system.cpu0.dcache.blockedCauses::no_targets           20                       # number of times access was blocked (Count)
system.cpu0.dcache.avgBlocked::no_mshrs     24.308909                       # average number of cycles each access was blocked ((Cycle/Count))
system.cpu0.dcache.avgBlocked::no_targets   125.250000                       # average number of cycles each access was blocked ((Cycle/Count))
system.cpu0.dcache.writebacks::writebacks       627260                       # number of writebacks (Count)
system.cpu0.dcache.writebacks::total           627260                       # number of writebacks (Count)
system.cpu0.dcache.demandMshrHits::cpu0.data      5607391                       # number of demand (read+write) MSHR hits (Count)
system.cpu0.dcache.demandMshrHits::total      5607391                       # number of demand (read+write) MSHR hits (Count)
system.cpu0.dcache.overallMshrHits::cpu0.data      5607391                       # number of overall MSHR hits (Count)
system.cpu0.dcache.overallMshrHits::total      5607391                       # number of overall MSHR hits (Count)
system.cpu0.dcache.demandMshrMisses::cpu0.data      1630912                       # number of demand (read+write) MSHR misses (Count)
system.cpu0.dcache.demandMshrMisses::total      1630912                       # number of demand (read+write) MSHR misses (Count)
system.cpu0.dcache.overallMshrMisses::cpu0.data      1755909                       # number of overall MSHR misses (Count)
system.cpu0.dcache.overallMshrMisses::total      1755909                       # number of overall MSHR misses (Count)
system.cpu0.dcache.demandMshrMissLatency::cpu0.data 138115843492                       # number of demand (read+write) MSHR miss ticks (Tick)
system.cpu0.dcache.demandMshrMissLatency::total 138115843492                       # number of demand (read+write) MSHR miss ticks (Tick)
system.cpu0.dcache.overallMshrMissLatency::cpu0.data 148670046242                       # number of overall MSHR miss ticks (Tick)
system.cpu0.dcache.overallMshrMissLatency::total 148670046242                       # number of overall MSHR miss ticks (Tick)
system.cpu0.dcache.demandMshrMissRate::cpu0.data     0.059334                       # mshr miss ratio for demand accesses (Ratio)
system.cpu0.dcache.demandMshrMissRate::total     0.059334                       # mshr miss ratio for demand accesses (Ratio)
system.cpu0.dcache.overallMshrMissRate::cpu0.data     0.058072                       # mshr miss ratio for overall accesses (Ratio)
system.cpu0.dcache.overallMshrMissRate::total     0.058072                       # mshr miss ratio for overall accesses (Ratio)
system.cpu0.dcache.demandAvgMshrMissLatency::cpu0.data 84686.263570                       # average overall mshr miss latency ((Tick/Count))
system.cpu0.dcache.demandAvgMshrMissLatency::total 84686.263570                       # average overall mshr miss latency ((Tick/Count))
system.cpu0.dcache.overallAvgMshrMissLatency::cpu0.data 84668.423160                       # average overall mshr miss latency ((Tick/Count))
system.cpu0.dcache.overallAvgMshrMissLatency::total 84668.423160                       # average overall mshr miss latency ((Tick/Count))
system.cpu0.dcache.replacements               1754705                       # number of replacements (Count)
system.cpu0.dcache.LockedRMWReadReq.hits::cpu0.data          143                       # number of LockedRMWReadReq hits (Count)
system.cpu0.dcache.LockedRMWReadReq.hits::total          143                       # number of LockedRMWReadReq hits (Count)
system.cpu0.dcache.LockedRMWReadReq.misses::cpu0.data           43                       # number of LockedRMWReadReq misses (Count)
system.cpu0.dcache.LockedRMWReadReq.misses::total           43                       # number of LockedRMWReadReq misses (Count)
system.cpu0.dcache.LockedRMWReadReq.missLatency::cpu0.data      1003750                       # number of LockedRMWReadReq miss ticks (Tick)
system.cpu0.dcache.LockedRMWReadReq.missLatency::total      1003750                       # number of LockedRMWReadReq miss ticks (Tick)
system.cpu0.dcache.LockedRMWReadReq.accesses::cpu0.data          186                       # number of LockedRMWReadReq accesses(hits+misses) (Count)
system.cpu0.dcache.LockedRMWReadReq.accesses::total          186                       # number of LockedRMWReadReq accesses(hits+misses) (Count)
system.cpu0.dcache.LockedRMWReadReq.missRate::cpu0.data     0.231183                       # miss rate for LockedRMWReadReq accesses (Ratio)
system.cpu0.dcache.LockedRMWReadReq.missRate::total     0.231183                       # miss rate for LockedRMWReadReq accesses (Ratio)
system.cpu0.dcache.LockedRMWReadReq.avgMissLatency::cpu0.data 23343.023256                       # average LockedRMWReadReq miss latency ((Tick/Count))
system.cpu0.dcache.LockedRMWReadReq.avgMissLatency::total 23343.023256                       # average LockedRMWReadReq miss latency ((Tick/Count))
system.cpu0.dcache.LockedRMWReadReq.mshrMisses::cpu0.data           43                       # number of LockedRMWReadReq MSHR misses (Count)
system.cpu0.dcache.LockedRMWReadReq.mshrMisses::total           43                       # number of LockedRMWReadReq MSHR misses (Count)
system.cpu0.dcache.LockedRMWReadReq.mshrMissLatency::cpu0.data      2393750                       # number of LockedRMWReadReq MSHR miss ticks (Tick)
system.cpu0.dcache.LockedRMWReadReq.mshrMissLatency::total      2393750                       # number of LockedRMWReadReq MSHR miss ticks (Tick)
system.cpu0.dcache.LockedRMWReadReq.mshrMissRate::cpu0.data     0.231183                       # mshr miss rate for LockedRMWReadReq accesses (Ratio)
system.cpu0.dcache.LockedRMWReadReq.mshrMissRate::total     0.231183                       # mshr miss rate for LockedRMWReadReq accesses (Ratio)
system.cpu0.dcache.LockedRMWReadReq.avgMshrMissLatency::cpu0.data 55668.604651                       # average LockedRMWReadReq mshr miss latency ((Tick/Count))
system.cpu0.dcache.LockedRMWReadReq.avgMshrMissLatency::total 55668.604651                       # average LockedRMWReadReq mshr miss latency ((Tick/Count))
system.cpu0.dcache.LockedRMWWriteReq.hits::cpu0.data          186                       # number of LockedRMWWriteReq hits (Count)
system.cpu0.dcache.LockedRMWWriteReq.hits::total          186                       # number of LockedRMWWriteReq hits (Count)
system.cpu0.dcache.LockedRMWWriteReq.accesses::cpu0.data          186                       # number of LockedRMWWriteReq accesses(hits+misses) (Count)
system.cpu0.dcache.LockedRMWWriteReq.accesses::total          186                       # number of LockedRMWWriteReq accesses(hits+misses) (Count)
system.cpu0.dcache.ReadReq.hits::cpu0.data     15797874                       # number of ReadReq hits (Count)
system.cpu0.dcache.ReadReq.hits::total       15797874                       # number of ReadReq hits (Count)
system.cpu0.dcache.ReadReq.misses::cpu0.data      6642958                       # number of ReadReq misses (Count)
system.cpu0.dcache.ReadReq.misses::total      6642958                       # number of ReadReq misses (Count)
system.cpu0.dcache.ReadReq.missLatency::cpu0.data 219641292500                       # number of ReadReq miss ticks (Tick)
system.cpu0.dcache.ReadReq.missLatency::total 219641292500                       # number of ReadReq miss ticks (Tick)
system.cpu0.dcache.ReadReq.accesses::cpu0.data     22440832                       # number of ReadReq accesses(hits+misses) (Count)
system.cpu0.dcache.ReadReq.accesses::total     22440832                       # number of ReadReq accesses(hits+misses) (Count)
system.cpu0.dcache.ReadReq.missRate::cpu0.data     0.296021                       # miss rate for ReadReq accesses (Ratio)
system.cpu0.dcache.ReadReq.missRate::total     0.296021                       # miss rate for ReadReq accesses (Ratio)
system.cpu0.dcache.ReadReq.avgMissLatency::cpu0.data 33063.778591                       # average ReadReq miss latency ((Tick/Count))
system.cpu0.dcache.ReadReq.avgMissLatency::total 33063.778591                       # average ReadReq miss latency ((Tick/Count))
system.cpu0.dcache.ReadReq.mshrHits::cpu0.data      5607382                       # number of ReadReq MSHR hits (Count)
system.cpu0.dcache.ReadReq.mshrHits::total      5607382                       # number of ReadReq MSHR hits (Count)
system.cpu0.dcache.ReadReq.mshrMisses::cpu0.data      1035576                       # number of ReadReq MSHR misses (Count)
system.cpu0.dcache.ReadReq.mshrMisses::total      1035576                       # number of ReadReq MSHR misses (Count)
system.cpu0.dcache.ReadReq.mshrMissLatency::cpu0.data  89657498750                       # number of ReadReq MSHR miss ticks (Tick)
system.cpu0.dcache.ReadReq.mshrMissLatency::total  89657498750                       # number of ReadReq MSHR miss ticks (Tick)
system.cpu0.dcache.ReadReq.mshrMissRate::cpu0.data     0.046147                       # mshr miss rate for ReadReq accesses (Ratio)
system.cpu0.dcache.ReadReq.mshrMissRate::total     0.046147                       # mshr miss rate for ReadReq accesses (Ratio)
system.cpu0.dcache.ReadReq.avgMshrMissLatency::cpu0.data 86577.420440                       # average ReadReq mshr miss latency ((Tick/Count))
system.cpu0.dcache.ReadReq.avgMshrMissLatency::total 86577.420440                       # average ReadReq mshr miss latency ((Tick/Count))
system.cpu0.dcache.SoftPFReq.hits::cpu0.data      2617278                       # number of SoftPFReq hits (Count)
system.cpu0.dcache.SoftPFReq.hits::total      2617278                       # number of SoftPFReq hits (Count)
system.cpu0.dcache.SoftPFReq.misses::cpu0.data       132546                       # number of SoftPFReq misses (Count)
system.cpu0.dcache.SoftPFReq.misses::total       132546                       # number of SoftPFReq misses (Count)
system.cpu0.dcache.SoftPFReq.accesses::cpu0.data      2749824                       # number of SoftPFReq accesses(hits+misses) (Count)
system.cpu0.dcache.SoftPFReq.accesses::total      2749824                       # number of SoftPFReq accesses(hits+misses) (Count)
system.cpu0.dcache.SoftPFReq.missRate::cpu0.data     0.048202                       # miss rate for SoftPFReq accesses (Ratio)
system.cpu0.dcache.SoftPFReq.missRate::total     0.048202                       # miss rate for SoftPFReq accesses (Ratio)
system.cpu0.dcache.SoftPFReq.mshrMisses::cpu0.data       124997                       # number of SoftPFReq MSHR misses (Count)
system.cpu0.dcache.SoftPFReq.mshrMisses::total       124997                       # number of SoftPFReq MSHR misses (Count)
system.cpu0.dcache.SoftPFReq.mshrMissLatency::cpu0.data  10554202750                       # number of SoftPFReq MSHR miss ticks (Tick)
system.cpu0.dcache.SoftPFReq.mshrMissLatency::total  10554202750                       # number of SoftPFReq MSHR miss ticks (Tick)
system.cpu0.dcache.SoftPFReq.mshrMissRate::cpu0.data     0.045456                       # mshr miss rate for SoftPFReq accesses (Ratio)
system.cpu0.dcache.SoftPFReq.mshrMissRate::total     0.045456                       # mshr miss rate for SoftPFReq accesses (Ratio)
system.cpu0.dcache.SoftPFReq.avgMshrMissLatency::cpu0.data 84435.648456                       # average SoftPFReq mshr miss latency ((Tick/Count))
system.cpu0.dcache.SoftPFReq.avgMshrMissLatency::total 84435.648456                       # average SoftPFReq mshr miss latency ((Tick/Count))
system.cpu0.dcache.WriteReq.hits::cpu0.data      4450577                       # number of WriteReq hits (Count)
system.cpu0.dcache.WriteReq.hits::total       4450577                       # number of WriteReq hits (Count)
system.cpu0.dcache.WriteReq.misses::cpu0.data       595345                       # number of WriteReq misses (Count)
system.cpu0.dcache.WriteReq.misses::total       595345                       # number of WriteReq misses (Count)
system.cpu0.dcache.WriteReq.missLatency::cpu0.data  48756423491                       # number of WriteReq miss ticks (Tick)
system.cpu0.dcache.WriteReq.missLatency::total  48756423491                       # number of WriteReq miss ticks (Tick)
system.cpu0.dcache.WriteReq.accesses::cpu0.data      5045922                       # number of WriteReq accesses(hits+misses) (Count)
system.cpu0.dcache.WriteReq.accesses::total      5045922                       # number of WriteReq accesses(hits+misses) (Count)
system.cpu0.dcache.WriteReq.missRate::cpu0.data     0.117985                       # miss rate for WriteReq accesses (Ratio)
system.cpu0.dcache.WriteReq.missRate::total     0.117985                       # miss rate for WriteReq accesses (Ratio)
system.cpu0.dcache.WriteReq.avgMissLatency::cpu0.data 81896.082928                       # average WriteReq miss latency ((Tick/Count))
system.cpu0.dcache.WriteReq.avgMissLatency::total 81896.082928                       # average WriteReq miss latency ((Tick/Count))
system.cpu0.dcache.WriteReq.mshrHits::cpu0.data            9                       # number of WriteReq MSHR hits (Count)
system.cpu0.dcache.WriteReq.mshrHits::total            9                       # number of WriteReq MSHR hits (Count)
system.cpu0.dcache.WriteReq.mshrMisses::cpu0.data       595336                       # number of WriteReq MSHR misses (Count)
system.cpu0.dcache.WriteReq.mshrMisses::total       595336                       # number of WriteReq MSHR misses (Count)
system.cpu0.dcache.WriteReq.mshrMissLatency::cpu0.data  48458344742                       # number of WriteReq MSHR miss ticks (Tick)
system.cpu0.dcache.WriteReq.mshrMissLatency::total  48458344742                       # number of WriteReq MSHR miss ticks (Tick)
system.cpu0.dcache.WriteReq.mshrMissRate::cpu0.data     0.117984                       # mshr miss rate for WriteReq accesses (Ratio)
system.cpu0.dcache.WriteReq.mshrMissRate::total     0.117984                       # mshr miss rate for WriteReq accesses (Ratio)
system.cpu0.dcache.WriteReq.avgMshrMissLatency::cpu0.data 81396.631049                       # average WriteReq mshr miss latency ((Tick/Count))
system.cpu0.dcache.WriteReq.avgMshrMissLatency::total 81396.631049                       # average WriteReq mshr miss latency ((Tick/Count))
system.cpu0.dcache.power_state.pwrStateResidencyTicks::UNDEFINED  70792223750                       # Cumulative time (in ticks) in various power states (Tick)
system.cpu0.dcache.tags.tagsInUse         1023.140855                       # Average ticks per tags in use ((Tick/Count))
system.cpu0.dcache.tags.totalRefs            24622013                       # Total number of references to valid blocks. (Count)
system.cpu0.dcache.tags.sampledRefs           1755870                       # Sample count of references to valid blocks. (Count)
system.cpu0.dcache.tags.avgRefs             14.022686                       # Average number of references to valid blocks. ((Count/Count))
system.cpu0.dcache.tags.warmupTick             168250                       # The tick when the warmup percentage was hit. (Tick)
system.cpu0.dcache.tags.occupancies::cpu0.data  1023.140855                       # Average occupied blocks per tick, per requestor ((Count/Tick))
system.cpu0.dcache.tags.avgOccs::cpu0.data     0.999161                       # Average percentage of cache occupancy ((Ratio/Tick))
system.cpu0.dcache.tags.avgOccs::total       0.999161                       # Average percentage of cache occupancy ((Ratio/Tick))
system.cpu0.dcache.tags.occupanciesTaskId::1024         1024                       # Occupied blocks per task id (Count)
system.cpu0.dcache.tags.ageTaskId_1024::0          129                       # Occupied blocks per task id, per block age (Count)
system.cpu0.dcache.tags.ageTaskId_1024::1          894                       # Occupied blocks per task id, per block age (Count)
system.cpu0.dcache.tags.ageTaskId_1024::4            1                       # Occupied blocks per task id, per block age (Count)
system.cpu0.dcache.tags.ratioOccsTaskId::1024            1                       # Ratio of occupied blocks and all blocks, per task id (Ratio)
system.cpu0.dcache.tags.tagAccesses          62229770                       # Number of tag accesses (Count)
system.cpu0.dcache.tags.dataAccesses         62229770                       # Number of data accesses (Count)
system.cpu0.dcache.tags.power_state.pwrStateResidencyTicks::UNDEFINED  70792223750                       # Cumulative time (in ticks) in various power states (Tick)
system.cpu0.decode.idleCycles                 4043038                       # Number of cycles decode is idle (Cycle)
system.cpu0.decode.blockedCycles            261999104                       # Number of cycles decode is blocked (Cycle)
system.cpu0.decode.runCycles                 12350295                       # Number of cycles decode is running (Cycle)
system.cpu0.decode.unblockCycles              3868234                       # Number of cycles decode is unblocking (Cycle)
system.cpu0.decode.squashCycles                511601                       # Number of cycles decode is squashing (Cycle)
system.cpu0.decode.branchResolved             3809198                       # Number of times decode resolved a branch (Count)
system.cpu0.decode.branchMispred                 1352                       # Number of times decode detected a branch misprediction (Count)
system.cpu0.decode.decodedInsts             122677823                       # Number of instructions handled by decode (Count)
system.cpu0.decode.squashedInsts                 6479                       # Number of squashed instructions handled by decode (Count)
system.cpu0.dtb_walker_cache.blockedCycles::no_mshrs            0                       # number of cycles access was blocked (Cycle)
system.cpu0.dtb_walker_cache.blockedCycles::no_targets            0                       # number of cycles access was blocked (Cycle)
system.cpu0.dtb_walker_cache.blockedCauses::no_mshrs            0                       # number of times access was blocked (Count)
system.cpu0.dtb_walker_cache.blockedCauses::no_targets            0                       # number of times access was blocked (Count)
system.cpu0.dtb_walker_cache.avgBlocked::no_mshrs          nan                       # average number of cycles each access was blocked ((Cycle/Count))
system.cpu0.dtb_walker_cache.avgBlocked::no_targets          nan                       # average number of cycles each access was blocked ((Cycle/Count))
system.cpu0.dtb_walker_cache.replacements            0                       # number of replacements (Count)
system.cpu0.dtb_walker_cache.power_state.pwrStateResidencyTicks::UNDEFINED  70792223750                       # Cumulative time (in ticks) in various power states (Tick)
system.cpu0.dtb_walker_cache.tags.tagsInUse            0                       # Average ticks per tags in use ((Tick/Count))
system.cpu0.dtb_walker_cache.tags.totalRefs            0                       # Total number of references to valid blocks. (Count)
system.cpu0.dtb_walker_cache.tags.sampledRefs            0                       # Sample count of references to valid blocks. (Count)
system.cpu0.dtb_walker_cache.tags.avgRefs          nan                       # Average number of references to valid blocks. ((Count/Count))
system.cpu0.dtb_walker_cache.tags.warmupTick            0                       # The tick when the warmup percentage was hit. (Tick)
system.cpu0.dtb_walker_cache.tags.tagAccesses            0                       # Number of tag accesses (Count)
system.cpu0.dtb_walker_cache.tags.dataAccesses            0                       # Number of data accesses (Count)
system.cpu0.dtb_walker_cache.tags.power_state.pwrStateResidencyTicks::UNDEFINED  70792223750                       # Cumulative time (in ticks) in various power states (Tick)
system.cpu0.fetch.icacheStallCycles           8749260                       # Number of cycles fetch is stalled on an Icache miss (Cycle)
system.cpu0.fetch.insts                      67482684                       # Number of instructions fetch has processed (Count)
system.cpu0.fetch.branches                    7443298                       # Number of branches that fetch encountered (Count)
system.cpu0.fetch.predictedBranches           4337261                       # Number of branches that fetch has predicted taken (Count)
system.cpu0.fetch.cycles                    273500534                       # Number of cycles fetch has run and was not squashing or blocked (Cycle)
system.cpu0.fetch.squashCycles                1025866                       # Number of cycles fetch has spent squashing (Cycle)
system.cpu0.fetch.miscStallCycles                1244                       # Number of cycles fetch has spent waiting on interrupts, or bad addresses, or out of MSHRs (Cycle)
system.cpu0.fetch.pendingTrapStallCycles         8221                       # Number of stall cycles due to pending traps (Cycle)
system.cpu0.fetch.icacheWaitRetryStallCycles           80                       # Number of stall cycles due to full MSHR (Cycle)
system.cpu0.fetch.cacheLines                  8510056                       # Number of cache lines fetched (Count)
system.cpu0.fetch.icacheSquashes                 3356                       # Number of outstanding Icache misses that were squashed (Count)
system.cpu0.fetch.nisnDist::samples         282772272                       # Number of instructions fetched each cycle (Total) (Count)
system.cpu0.fetch.nisnDist::mean             0.504015                       # Number of instructions fetched each cycle (Total) (Count)
system.cpu0.fetch.nisnDist::stdev            1.838322                       # Number of instructions fetched each cycle (Total) (Count)
system.cpu0.fetch.nisnDist::underflows              0      0.00%      0.00% # Number of instructions fetched each cycle (Total) (Count)
system.cpu0.fetch.nisnDist::0               260920017     92.27%     92.27% # Number of instructions fetched each cycle (Total) (Count)
system.cpu0.fetch.nisnDist::1                  503684      0.18%     92.45% # Number of instructions fetched each cycle (Total) (Count)
system.cpu0.fetch.nisnDist::2                 1386901      0.49%     92.94% # Number of instructions fetched each cycle (Total) (Count)
system.cpu0.fetch.nisnDist::3                 1514532      0.54%     93.48% # Number of instructions fetched each cycle (Total) (Count)
system.cpu0.fetch.nisnDist::4                  908505      0.32%     93.80% # Number of instructions fetched each cycle (Total) (Count)
system.cpu0.fetch.nisnDist::5                  650333      0.23%     94.03% # Number of instructions fetched each cycle (Total) (Count)
system.cpu0.fetch.nisnDist::6                 2745523      0.97%     95.00% # Number of instructions fetched each cycle (Total) (Count)
system.cpu0.fetch.nisnDist::7                 1800769      0.64%     95.64% # Number of instructions fetched each cycle (Total) (Count)
system.cpu0.fetch.nisnDist::8                12342008      4.36%    100.00% # Number of instructions fetched each cycle (Total) (Count)
system.cpu0.fetch.nisnDist::overflows               0      0.00%    100.00% # Number of instructions fetched each cycle (Total) (Count)
system.cpu0.fetch.nisnDist::min_value               0                       # Number of instructions fetched each cycle (Total) (Count)
system.cpu0.fetch.nisnDist::max_value               8                       # Number of instructions fetched each cycle (Total) (Count)
system.cpu0.fetch.nisnDist::total           282772272                       # Number of instructions fetched each cycle (Total) (Count)
system.cpu0.fetch.branchRate                 0.026286                       # Number of branch fetches per cycle (Ratio)
system.cpu0.fetch.rate                       0.238312                       # Number of inst fetches per cycle ((Count/Cycle))
system.cpu0.icache.demandHits::cpu0.inst      8506595                       # number of demand (read+write) hits (Count)
system.cpu0.icache.demandHits::total          8506595                       # number of demand (read+write) hits (Count)
system.cpu0.icache.overallHits::cpu0.inst      8506595                       # number of overall hits (Count)
system.cpu0.icache.overallHits::total         8506595                       # number of overall hits (Count)
system.cpu0.icache.demandMisses::cpu0.inst         3461                       # number of demand (read+write) misses (Count)
system.cpu0.icache.demandMisses::total           3461                       # number of demand (read+write) misses (Count)
system.cpu0.icache.overallMisses::cpu0.inst         3461                       # number of overall misses (Count)
system.cpu0.icache.overallMisses::total          3461                       # number of overall misses (Count)
system.cpu0.icache.demandMissLatency::cpu0.inst    228631999                       # number of demand (read+write) miss ticks (Tick)
system.cpu0.icache.demandMissLatency::total    228631999                       # number of demand (read+write) miss ticks (Tick)
system.cpu0.icache.overallMissLatency::cpu0.inst    228631999                       # number of overall miss ticks (Tick)
system.cpu0.icache.overallMissLatency::total    228631999                       # number of overall miss ticks (Tick)
system.cpu0.icache.demandAccesses::cpu0.inst      8510056                       # number of demand (read+write) accesses (Count)
system.cpu0.icache.demandAccesses::total      8510056                       # number of demand (read+write) accesses (Count)
system.cpu0.icache.overallAccesses::cpu0.inst      8510056                       # number of overall (read+write) accesses (Count)
system.cpu0.icache.overallAccesses::total      8510056                       # number of overall (read+write) accesses (Count)
system.cpu0.icache.demandMissRate::cpu0.inst     0.000407                       # miss rate for demand accesses (Ratio)
system.cpu0.icache.demandMissRate::total     0.000407                       # miss rate for demand accesses (Ratio)
system.cpu0.icache.overallMissRate::cpu0.inst     0.000407                       # miss rate for overall accesses (Ratio)
system.cpu0.icache.overallMissRate::total     0.000407                       # miss rate for overall accesses (Ratio)
system.cpu0.icache.demandAvgMissLatency::cpu0.inst 66059.520081                       # average overall miss latency in ticks ((Tick/Count))
system.cpu0.icache.demandAvgMissLatency::total 66059.520081                       # average overall miss latency in ticks ((Tick/Count))
system.cpu0.icache.overallAvgMissLatency::cpu0.inst 66059.520081                       # average overall miss latency ((Tick/Count))
system.cpu0.icache.overallAvgMissLatency::total 66059.520081                       # average overall miss latency ((Tick/Count))
system.cpu0.icache.blockedCycles::no_mshrs         1017                       # number of cycles access was blocked (Cycle)
system.cpu0.icache.blockedCycles::no_targets            0                       # number of cycles access was blocked (Cycle)
system.cpu0.icache.blockedCauses::no_mshrs           18                       # number of times access was blocked (Count)
system.cpu0.icache.blockedCauses::no_targets            0                       # number of times access was blocked (Count)
system.cpu0.icache.avgBlocked::no_mshrs     56.500000                       # average number of cycles each access was blocked ((Cycle/Count))
system.cpu0.icache.avgBlocked::no_targets          nan                       # average number of cycles each access was blocked ((Cycle/Count))
system.cpu0.icache.writebacks::writebacks         2201                       # number of writebacks (Count)
system.cpu0.icache.writebacks::total             2201                       # number of writebacks (Count)
system.cpu0.icache.demandMshrHits::cpu0.inst          738                       # number of demand (read+write) MSHR hits (Count)
system.cpu0.icache.demandMshrHits::total          738                       # number of demand (read+write) MSHR hits (Count)
system.cpu0.icache.overallMshrHits::cpu0.inst          738                       # number of overall MSHR hits (Count)
system.cpu0.icache.overallMshrHits::total          738                       # number of overall MSHR hits (Count)
system.cpu0.icache.demandMshrMisses::cpu0.inst         2723                       # number of demand (read+write) MSHR misses (Count)
system.cpu0.icache.demandMshrMisses::total         2723                       # number of demand (read+write) MSHR misses (Count)
system.cpu0.icache.overallMshrMisses::cpu0.inst         2723                       # number of overall MSHR misses (Count)
system.cpu0.icache.overallMshrMisses::total         2723                       # number of overall MSHR misses (Count)
system.cpu0.icache.demandMshrMissLatency::cpu0.inst    178798750                       # number of demand (read+write) MSHR miss ticks (Tick)
system.cpu0.icache.demandMshrMissLatency::total    178798750                       # number of demand (read+write) MSHR miss ticks (Tick)
system.cpu0.icache.overallMshrMissLatency::cpu0.inst    178798750                       # number of overall MSHR miss ticks (Tick)
system.cpu0.icache.overallMshrMissLatency::total    178798750                       # number of overall MSHR miss ticks (Tick)
system.cpu0.icache.demandMshrMissRate::cpu0.inst     0.000320                       # mshr miss ratio for demand accesses (Ratio)
system.cpu0.icache.demandMshrMissRate::total     0.000320                       # mshr miss ratio for demand accesses (Ratio)
system.cpu0.icache.overallMshrMissRate::cpu0.inst     0.000320                       # mshr miss ratio for overall accesses (Ratio)
system.cpu0.icache.overallMshrMissRate::total     0.000320                       # mshr miss ratio for overall accesses (Ratio)
system.cpu0.icache.demandAvgMshrMissLatency::cpu0.inst 65662.412780                       # average overall mshr miss latency ((Tick/Count))
system.cpu0.icache.demandAvgMshrMissLatency::total 65662.412780                       # average overall mshr miss latency ((Tick/Count))
system.cpu0.icache.overallAvgMshrMissLatency::cpu0.inst 65662.412780                       # average overall mshr miss latency ((Tick/Count))
system.cpu0.icache.overallAvgMshrMissLatency::total 65662.412780                       # average overall mshr miss latency ((Tick/Count))
system.cpu0.icache.replacements                  2201                       # number of replacements (Count)
system.cpu0.icache.ReadReq.hits::cpu0.inst      8506595                       # number of ReadReq hits (Count)
system.cpu0.icache.ReadReq.hits::total        8506595                       # number of ReadReq hits (Count)
system.cpu0.icache.ReadReq.misses::cpu0.inst         3461                       # number of ReadReq misses (Count)
system.cpu0.icache.ReadReq.misses::total         3461                       # number of ReadReq misses (Count)
system.cpu0.icache.ReadReq.missLatency::cpu0.inst    228631999                       # number of ReadReq miss ticks (Tick)
system.cpu0.icache.ReadReq.missLatency::total    228631999                       # number of ReadReq miss ticks (Tick)
system.cpu0.icache.ReadReq.accesses::cpu0.inst      8510056                       # number of ReadReq accesses(hits+misses) (Count)
system.cpu0.icache.ReadReq.accesses::total      8510056                       # number of ReadReq accesses(hits+misses) (Count)
system.cpu0.icache.ReadReq.missRate::cpu0.inst     0.000407                       # miss rate for ReadReq accesses (Ratio)
system.cpu0.icache.ReadReq.missRate::total     0.000407                       # miss rate for ReadReq accesses (Ratio)
system.cpu0.icache.ReadReq.avgMissLatency::cpu0.inst 66059.520081                       # average ReadReq miss latency ((Tick/Count))
system.cpu0.icache.ReadReq.avgMissLatency::total 66059.520081                       # average ReadReq miss latency ((Tick/Count))
system.cpu0.icache.ReadReq.mshrHits::cpu0.inst          738                       # number of ReadReq MSHR hits (Count)
system.cpu0.icache.ReadReq.mshrHits::total          738                       # number of ReadReq MSHR hits (Count)
system.cpu0.icache.ReadReq.mshrMisses::cpu0.inst         2723                       # number of ReadReq MSHR misses (Count)
system.cpu0.icache.ReadReq.mshrMisses::total         2723                       # number of ReadReq MSHR misses (Count)
system.cpu0.icache.ReadReq.mshrMissLatency::cpu0.inst    178798750                       # number of ReadReq MSHR miss ticks (Tick)
system.cpu0.icache.ReadReq.mshrMissLatency::total    178798750                       # number of ReadReq MSHR miss ticks (Tick)
system.cpu0.icache.ReadReq.mshrMissRate::cpu0.inst     0.000320                       # mshr miss rate for ReadReq accesses (Ratio)
system.cpu0.icache.ReadReq.mshrMissRate::total     0.000320                       # mshr miss rate for ReadReq accesses (Ratio)
system.cpu0.icache.ReadReq.avgMshrMissLatency::cpu0.inst 65662.412780                       # average ReadReq mshr miss latency ((Tick/Count))
system.cpu0.icache.ReadReq.avgMshrMissLatency::total 65662.412780                       # average ReadReq mshr miss latency ((Tick/Count))
system.cpu0.icache.power_state.pwrStateResidencyTicks::UNDEFINED  70792223750                       # Cumulative time (in ticks) in various power states (Tick)
system.cpu0.icache.tags.tagsInUse          509.306493                       # Average ticks per tags in use ((Tick/Count))
system.cpu0.icache.tags.totalRefs             8509317                       # Total number of references to valid blocks. (Count)
system.cpu0.icache.tags.sampledRefs              2722                       # Sample count of references to valid blocks. (Count)
system.cpu0.icache.tags.avgRefs           3126.126745                       # Average number of references to valid blocks. ((Count/Count))
system.cpu0.icache.tags.warmupTick              85250                       # The tick when the warmup percentage was hit. (Tick)
system.cpu0.icache.tags.occupancies::cpu0.inst   509.306493                       # Average occupied blocks per tick, per requestor ((Count/Tick))
system.cpu0.icache.tags.avgOccs::cpu0.inst     0.994739                       # Average percentage of cache occupancy ((Ratio/Tick))
system.cpu0.icache.tags.avgOccs::total       0.994739                       # Average percentage of cache occupancy ((Ratio/Tick))
system.cpu0.icache.tags.occupanciesTaskId::1024          512                       # Occupied blocks per task id (Count)
system.cpu0.icache.tags.ageTaskId_1024::0          106                       # Occupied blocks per task id, per block age (Count)
system.cpu0.icache.tags.ageTaskId_1024::1           74                       # Occupied blocks per task id, per block age (Count)
system.cpu0.icache.tags.ageTaskId_1024::4          332                       # Occupied blocks per task id, per block age (Count)
system.cpu0.icache.tags.ratioOccsTaskId::1024            1                       # Ratio of occupied blocks and all blocks, per task id (Ratio)
system.cpu0.icache.tags.tagAccesses          17022834                       # Number of tag accesses (Count)
system.cpu0.icache.tags.dataAccesses         17022834                       # Number of data accesses (Count)
system.cpu0.icache.tags.power_state.pwrStateResidencyTicks::UNDEFINED  70792223750                       # Cumulative time (in ticks) in various power states (Tick)
system.cpu0.iew.idleCycles                          0                       # Number of cycles IEW is idle (Cycle)
system.cpu0.iew.squashCycles                   511601                       # Number of cycles IEW is squashing (Cycle)
system.cpu0.iew.blockCycles                  40502626                       # Number of cycles IEW is blocking (Cycle)
system.cpu0.iew.unblockCycles                20185475                       # Number of cycles IEW is unblocking (Cycle)
system.cpu0.iew.dispatchedInsts             117320263                       # Number of instructions dispatched to IQ (Count)
system.cpu0.iew.dispSquashedInsts                1027                       # Number of squashed instructions skipped by dispatch (Count)
system.cpu0.iew.dispLoadInsts                25226971                       # Number of dispatched load instructions (Count)
system.cpu0.iew.dispStoreInsts               21568012                       # Number of dispatched store instructions (Count)
system.cpu0.iew.dispNonSpecInsts                  543                       # Number of dispatched non-speculative instructions (Count)
system.cpu0.iew.iqFullEvents                    46851                       # Number of times the IQ has become full, causing a stall (Count)
system.cpu0.iew.lsqFullEvents                20112679                       # Number of times the LSQ has become full, causing a stall (Count)
system.cpu0.iew.memOrderViolationEvents           352                       # Number of memory order violations (Count)
system.cpu0.iew.predictedTakenIncorrect          2737                       # Number of branches that were predicted taken incorrectly (Count)
system.cpu0.iew.predictedNotTakenIncorrect         7493                       # Number of branches that were predicted not taken incorrectly (Count)
system.cpu0.iew.branchMispredicts               10230                       # Number of branch mispredicts detected at execute (Count)
system.cpu0.iew.instsToCommit               117161031                       # Cumulative count of insts sent to commit (Count)
[...]
system.membus.snoopFanout::mean                     0                       # Request fanout histogram (Count)
system.membus.snoopFanout::stdev                    0                       # Request fanout histogram (Count)
system.membus.snoopFanout::underflows               0      0.00%      0.00% # Request fanout histogram (Count)
system.membus.snoopFanout::0                  5881843    100.00%    100.00% # Request fanout histogram (Count)
system.membus.snoopFanout::1                        0      0.00%    100.00% # Request fanout histogram (Count)
system.membus.snoopFanout::overflows                0      0.00%    100.00% # Request fanout histogram (Count)
system.membus.snoopFanout::min_value                0                       # Request fanout histogram (Count)
system.membus.snoopFanout::max_value                0                       # Request fanout histogram (Count)
system.membus.snoopFanout::total              5881843                       # Request fanout histogram (Count)
system.membus.power_state.pwrStateResidencyTicks::UNDEFINED  70792223750                       # Cumulative time (in ticks) in various power states (Tick)
system.membus.reqLayer10.occupancy          759102331                       # Layer occupancy (ticks) (Tick)
system.membus.reqLayer10.utilization              0.0                       # Layer utilization (Ratio)
system.membus.reqLayer11.occupancy          759775579                       # Layer occupancy (ticks) (Tick)
system.membus.reqLayer11.utilization              0.0                       # Layer utilization (Ratio)
system.membus.reqLayer12.occupancy          759190528                       # Layer occupancy (ticks) (Tick)
system.membus.reqLayer12.utilization              0.0                       # Layer utilization (Ratio)
system.membus.reqLayer13.occupancy          759802640                       # Layer occupancy (ticks) (Tick)
system.membus.reqLayer13.utilization              0.0                       # Layer utilization (Ratio)
system.membus.reqLayer14.occupancy          759299823                       # Layer occupancy (ticks) (Tick)
system.membus.reqLayer14.utilization              0.0                       # Layer utilization (Ratio)
system.membus.reqLayer15.occupancy          759825088                       # Layer occupancy (ticks) (Tick)
system.membus.reqLayer15.utilization              0.0                       # Layer utilization (Ratio)
system.membus.reqLayer16.occupancy          759159069                       # Layer occupancy (ticks) (Tick)
system.membus.reqLayer16.utilization              0.0                       # Layer utilization (Ratio)
system.membus.reqLayer17.occupancy          759616160                       # Layer occupancy (ticks) (Tick)
system.membus.reqLayer17.utilization              0.0                       # Layer utilization (Ratio)
system.membus.reqLayer18.occupancy          759024395                       # Layer occupancy (ticks) (Tick)
system.membus.reqLayer18.utilization              0.0                       # Layer utilization (Ratio)
system.membus.reqLayer19.occupancy          759753882                       # Layer occupancy (ticks) (Tick)
system.membus.reqLayer19.utilization              0.0                       # Layer utilization (Ratio)
system.membus.reqLayer20.occupancy          759456564                       # Layer occupancy (ticks) (Tick)
system.membus.reqLayer20.utilization              0.0                       # Layer utilization (Ratio)
system.membus.reqLayer21.occupancy          760190106                       # Layer occupancy (ticks) (Tick)
system.membus.reqLayer21.utilization              0.0                       # Layer utilization (Ratio)
system.membus.reqLayer22.occupancy          759592242                       # Layer occupancy (ticks) (Tick)
system.membus.reqLayer22.utilization              0.0                       # Layer utilization (Ratio)
system.membus.reqLayer23.occupancy          760074039                       # Layer occupancy (ticks) (Tick)
system.membus.reqLayer23.utilization              0.0                       # Layer utilization (Ratio)
system.membus.reqLayer24.occupancy          759455477                       # Layer occupancy (ticks) (Tick)
system.membus.reqLayer24.utilization              0.0                       # Layer utilization (Ratio)
system.membus.reqLayer25.occupancy          760084723                       # Layer occupancy (ticks) (Tick)
system.membus.reqLayer25.utilization              0.0                       # Layer utilization (Ratio)
system.membus.reqLayer26.occupancy          759265144                       # Layer occupancy (ticks) (Tick)
system.membus.reqLayer26.utilization              0.0                       # Layer utilization (Ratio)
system.membus.reqLayer27.occupancy          759927300                       # Layer occupancy (ticks) (Tick)
system.membus.reqLayer27.utilization              0.0                       # Layer utilization (Ratio)
system.membus.reqLayer28.occupancy          759309447                       # Layer occupancy (ticks) (Tick)
system.membus.reqLayer28.utilization              0.0                       # Layer utilization (Ratio)
system.membus.reqLayer29.occupancy          759608077                       # Layer occupancy (ticks) (Tick)
system.membus.reqLayer29.utilization              0.0                       # Layer utilization (Ratio)
system.membus.reqLayer30.occupancy          758926752                       # Layer occupancy (ticks) (Tick)
system.membus.reqLayer30.utilization              0.0                       # Layer utilization (Ratio)
system.membus.reqLayer31.occupancy          759665138                       # Layer occupancy (ticks) (Tick)
system.membus.reqLayer31.utilization              0.0                       # Layer utilization (Ratio)
system.membus.reqLayer32.occupancy          759569520                       # Layer occupancy (ticks) (Tick)
system.membus.reqLayer32.utilization              0.0                       # Layer utilization (Ratio)
system.membus.reqLayer33.occupancy          759801270                       # Layer occupancy (ticks) (Tick)
system.membus.reqLayer33.utilization              0.0                       # Layer utilization (Ratio)
system.membus.reqLayer34.occupancy          759494095                       # Layer occupancy (ticks) (Tick)
system.membus.reqLayer34.utilization              0.0                       # Layer utilization (Ratio)
system.membus.reqLayer35.occupancy          759975613                       # Layer occupancy (ticks) (Tick)
system.membus.reqLayer35.utilization              0.0                       # Layer utilization (Ratio)
system.membus.reqLayer36.occupancy          759028680                       # Layer occupancy (ticks) (Tick)
system.membus.reqLayer36.utilization              0.0                       # Layer utilization (Ratio)
system.membus.reqLayer37.occupancy          759515141                       # Layer occupancy (ticks) (Tick)
system.membus.reqLayer37.utilization              0.0                       # Layer utilization (Ratio)
system.membus.reqLayer38.occupancy          759279449                       # Layer occupancy (ticks) (Tick)
system.membus.reqLayer38.utilization              0.0                       # Layer utilization (Ratio)
system.membus.reqLayer39.occupancy          759763231                       # Layer occupancy (ticks) (Tick)
system.membus.reqLayer39.utilization              0.0                       # Layer utilization (Ratio)
system.membus.reqLayer8.occupancy           759045955                       # Layer occupancy (ticks) (Tick)
system.membus.reqLayer8.utilization               0.0                       # Layer utilization (Ratio)
system.membus.reqLayer9.occupancy           759467197                       # Layer occupancy (ticks) (Tick)
system.membus.reqLayer9.utilization               0.0                       # Layer utilization (Ratio)
system.membus.respLayer1.occupancy        29416802030                       # Layer occupancy (ticks) (Tick)
system.membus.respLayer1.utilization              0.4                       # Layer utilization (Ratio)
system.membus.snoop_filter.totRequests       11725556                       # Total number of requests made to the snoop filter. (Count)
system.membus.snoop_filter.hitSingleRequests      5846491                       # Number of requests hitting in the snoop filter with a single holder of the requested data. (Count)
system.membus.snoop_filter.hitMultiRequests            0                       # Number of requests hitting in the snoop filter with multiple (>1) holders of the requested data. (Count)
system.membus.snoop_filter.totSnoops                0                       # Total number of snoops made to the snoop filter. (Count)
system.membus.snoop_filter.hitSingleSnoops            0                       # Number of snoops hitting in the snoop filter with a single holder of the requested data. (Count)
system.membus.snoop_filter.hitMultiSnoops            0                       # Number of snoops hitting in the snoop filter with multiple (>1) holders of the requested data. (Count)
system.tol2bus.transDist::ReadResp            3508489                       # Transaction distribution (Count)
system.tol2bus.transDist::WritebackDirty      5003596                       # Transaction distribution (Count)
system.tol2bus.transDist::WritebackClean         2210                       # Transaction distribution (Count)
system.tol2bus.transDist::CleanEvict          6723312                       # Transaction distribution (Count)
system.tol2bus.transDist::UpgradeReq              180                       # Transaction distribution (Count)
system.tol2bus.transDist::UpgradeResp             180                       # Transaction distribution (Count)
system.tol2bus.transDist::ReadExReq           2376824                       # Transaction distribution (Count)
system.tol2bus.transDist::ReadExResp          2376824                       # Transaction distribution (Count)
system.tol2bus.transDist::ReadCleanReq           3026                       # Transaction distribution (Count)
system.tol2bus.transDist::ReadSharedReq       3505464                       # Transaction distribution (Count)
system.tol2bus.pktCount_system.cpu0.icache.mem_side_port::system.l2.cpu_side_port         7639                       # Packet count per connected requestor and responder (Count)
system.tol2bus.pktCount_system.cpu0.dcache.mem_side_port::system.l2.cpu_side_port      5266055                       # Packet count per connected requestor and responder (Count)
system.tol2bus.pktCount_system.cpu1.icache.mem_side_port::system.l2.cpu_side_port          284                       # Packet count per connected requestor and responder (Count)
system.tol2bus.pktCount_system.cpu1.dcache.mem_side_port::system.l2.cpu_side_port      4125199                       # Packet count per connected requestor and responder (Count)
system.tol2bus.pktCount_system.cpu2.icache.mem_side_port::system.l2.cpu_side_port          161                       # Packet count per connected requestor and responder (Count)
system.tol2bus.pktCount_system.cpu2.dcache.mem_side_port::system.l2.cpu_side_port      4124962                       # Packet count per connected requestor and responder (Count)
system.tol2bus.pktCount_system.cpu3.icache.mem_side_port::system.l2.cpu_side_port          159                       # Packet count per connected requestor and responder (Count)
system.tol2bus.pktCount_system.cpu3.dcache.mem_side_port::system.l2.cpu_side_port      4125081                       # Packet count per connected requestor and responder (Count)
system.tol2bus.pktCount::total               17649540                       # Packet count per connected requestor and responder (Count)
system.tol2bus.pktSize_system.cpu0.icache.mem_side_port::system.l2.cpu_side_port       314624                       # Cumulative packet size per connected requestor and responder (Byte)
system.tol2bus.pktSize_system.cpu0.dcache.mem_side_port::system.l2.cpu_side_port    152487104                       # Cumulative packet size per connected requestor and responder (Byte)
system.tol2bus.pktSize_system.cpu1.icache.mem_side_port::system.l2.cpu_side_port         9088                       # Cumulative packet size per connected requestor and responder (Byte)
system.tol2bus.pktSize_system.cpu1.dcache.mem_side_port::system.l2.cpu_side_port    128014592                       # Cumulative packet size per connected requestor and responder (Byte)
system.tol2bus.pktSize_system.cpu2.icache.mem_side_port::system.l2.cpu_side_port         5184                       # Cumulative packet size per connected requestor and responder (Byte)
system.tol2bus.pktSize_system.cpu2.dcache.mem_side_port::system.l2.cpu_side_port    128010112                       # Cumulative packet size per connected requestor and responder (Byte)
system.tol2bus.pktSize_system.cpu3.icache.mem_side_port::system.l2.cpu_side_port         4992                       # Cumulative packet size per connected requestor and responder (Byte)
system.tol2bus.pktSize_system.cpu3.dcache.mem_side_port::system.l2.cpu_side_port    128014144                       # Cumulative packet size per connected requestor and responder (Byte)
system.tol2bus.pktSize::total               536859840                       # Cumulative packet size per connected requestor and responder (Byte)
system.tol2bus.snoops                         5850565                       # Total snoops (Count)
system.tol2bus.snoopTraffic                 160171776                       # Total snoop traffic (Byte)
system.tol2bus.snoopFanout::samples          11734789                       # Request fanout histogram (Count)
system.tol2bus.snoopFanout::mean             0.001068                       # Request fanout histogram (Count)
system.tol2bus.snoopFanout::stdev            0.038388                       # Request fanout histogram (Count)
system.tol2bus.snoopFanout::underflows              0      0.00%      0.00% # Request fanout histogram (Count)
system.tol2bus.snoopFanout::0                11723907     99.91%     99.91% # Request fanout histogram (Count)
system.tol2bus.snoopFanout::1                    9909      0.08%     99.99% # Request fanout histogram (Count)
system.tol2bus.snoopFanout::2                     363      0.00%     99.99% # Request fanout histogram (Count)
system.tol2bus.snoopFanout::3                     545      0.00%    100.00% # Request fanout histogram (Count)
system.tol2bus.snoopFanout::4                      65      0.00%    100.00% # Request fanout histogram (Count)
system.tol2bus.snoopFanout::5                       0      0.00%    100.00% # Request fanout histogram (Count)
system.tol2bus.snoopFanout::6                       0      0.00%    100.00% # Request fanout histogram (Count)
system.tol2bus.snoopFanout::7                       0      0.00%    100.00% # Request fanout histogram (Count)
system.tol2bus.snoopFanout::8                       0      0.00%    100.00% # Request fanout histogram (Count)
system.tol2bus.snoopFanout::9                       0      0.00%    100.00% # Request fanout histogram (Count)
system.tol2bus.snoopFanout::10                      0      0.00%    100.00% # Request fanout histogram (Count)
system.tol2bus.snoopFanout::11                      0      0.00%    100.00% # Request fanout histogram (Count)
system.tol2bus.snoopFanout::12                      0      0.00%    100.00% # Request fanout histogram (Count)
system.tol2bus.snoopFanout::13                      0      0.00%    100.00% # Request fanout histogram (Count)
system.tol2bus.snoopFanout::14                      0      0.00%    100.00% # Request fanout histogram (Count)
system.tol2bus.snoopFanout::15                      0      0.00%    100.00% # Request fanout histogram (Count)
system.tol2bus.snoopFanout::16                      0      0.00%    100.00% # Request fanout histogram (Count)
system.tol2bus.snoopFanout::overflows               0      0.00%    100.00% # Request fanout histogram (Count)
system.tol2bus.snoopFanout::min_value               0                       # Request fanout histogram (Count)
system.tol2bus.snoopFanout::max_value               4                       # Request fanout histogram (Count)
system.tol2bus.snoopFanout::total            11734789                       # Request fanout histogram (Count)
system.tol2bus.power_state.pwrStateResidencyTicks::UNDEFINED  70792223750                       # Cumulative time (in ticks) in various power states (Tick)
system.tol2bus.reqLayer0.occupancy         4193472999                       # Layer occupancy (ticks) (Tick)
system.tol2bus.reqLayer0.utilization              0.1                       # Layer utilization (Ratio)
system.tol2bus.respLayer0.occupancy           2043981                       # Layer occupancy (ticks) (Tick)
system.tol2bus.respLayer0.utilization             0.0                       # Layer utilization (Ratio)
system.tol2bus.respLayer1.occupancy        1316926973                       # Layer occupancy (ticks) (Tick)
system.tol2bus.respLayer1.utilization             0.0                       # Layer utilization (Ratio)
system.tol2bus.respLayer12.occupancy            65963                       # Layer occupancy (ticks) (Tick)
system.tol2bus.respLayer12.utilization            0.0                       # Layer utilization (Ratio)
system.tol2bus.respLayer13.occupancy       1031607963                       # Layer occupancy (ticks) (Tick)
system.tol2bus.respLayer13.utilization            0.0                       # Layer utilization (Ratio)
system.tol2bus.respLayer4.occupancy            113698                       # Layer occupancy (ticks) (Tick)
system.tol2bus.respLayer4.utilization             0.0                       # Layer utilization (Ratio)
system.tol2bus.respLayer5.occupancy        1031663193                       # Layer occupancy (ticks) (Tick)
system.tol2bus.respLayer5.utilization             0.0                       # Layer utilization (Ratio)
system.tol2bus.respLayer8.occupancy             67204                       # Layer occupancy (ticks) (Tick)
system.tol2bus.respLayer8.utilization             0.0                       # Layer utilization (Ratio)
system.tol2bus.respLayer9.occupancy        1031595440                       # Layer occupancy (ticks) (Tick)
system.tol2bus.respLayer9.utilization             0.0                       # Layer utilization (Ratio)
system.tol2bus.snoop_filter.totRequests      11765317                       # Total number of requests made to the snoop filter. (Count)
system.tol2bus.snoop_filter.hitSingleRequests      5880640                       # Number of requests hitting in the snoop filter with a single holder of the requested data. (Count)
system.tol2bus.snoop_filter.hitMultiRequests         4292                       # Number of requests hitting in the snoop filter with multiple (>1) holders of the requested data. (Count)
system.tol2bus.snoop_filter.totSnoops            5863                       # Total number of snoops made to the snoop filter. (Count)
system.tol2bus.snoop_filter.hitSingleSnoops         5666                       # Number of snoops hitting in the snoop filter with a single holder of the requested data. (Count)
system.tol2bus.snoop_filter.hitMultiSnoops          197                       # Number of snoops hitting in the snoop filter with multiple (>1) holders of the requested data. (Count)
system.voltage_domain.voltage                       1                       # Voltage in Volts (Volt)
system.workload.inst.arm                            0                       # number of arm instructions executed (Count)
system.workload.inst.quiesce                        0                       # number of quiesce instructions executed (Count)

---------- End Simulation Statistics   ----------
