Global frequency set at 1000000000000 ticks per second
gem5 Simulator System.  https://www.gem5.org
gem5 is copyrighted software; use the --copyright option for details.

gem5 version 22.0.0.2
gem5 compiled Aug  8 2022 00:57:17
gem5 started Aug 22 2022 04:06:07
gem5 executing on codespaces-4933b6, pid 28295
command line: ../gem5/build/X86/gem5.opt --outdir=./result/HBM_compare/test6/4channel se.py --cpu-type X86O3CPU -n 1 --cpu-clock 4GHz --num-cpus 1 --mem-type HBM_2000_4H_1x64 --mem-channels 4 --caches --l2cache --cmd ./workload/stream_strcpy.1M

info: Standard input is not a terminal, disabling listeners.
**** REAL SIMULATION ****
-------------------------------------------------------------
STREAM version $Revision: 5.10 $
-------------------------------------------------------------
This system uses 8 bytes per array element.
-------------------------------------------------------------
Array size = 1000000 (elements), Offset = 0 (elements)
Memory per array = 7.6 MiB (= 0.0 GiB).
Total memory required = 22.9 MiB (= 0.0 GiB).
Each kernel will be executed 4 times.
 The *best* time for each kernel (excluding the first iteration)
 will be used to compute the reported bandwidth.
-------------------------------------------------------------
Your clock granularity/precision appears to be 1 microseconds.
Each test below will take on the order of 11515 microseconds.
   (= 11515 clock ticks)
Increase the size of the arrays if this shows that
you are not getting at least 20 clock ticks per test.
-------------------------------------------------------------
WARNING -- The above is only a rough guideline.
For best results, please be sure you know the
precision of your system timer.
-------------------------------------------------------------
Function    Best Rate MB/s  Avg time     Min time     Max time
Copy:            1044.5     0.015323     0.015318     0.015333
Scale:           1483.3     0.010787     0.010787     0.010788
Add:             2271.2     0.010567     0.010567     0.010568
Triad:           2272.9     0.010560     0.010559     0.010560
-------------------------------------------------------------
Solution Validates: avg error less than 1.000000e-13 on all three arrays
-------------------------------------------------------------
Exiting @ tick 245269565250 because exiting with last active thread context
