Global frequency set at 1000000000000 ticks per second
gem5 Simulator System.  https://www.gem5.org
gem5 is copyrighted software; use the --copyright option for details.

gem5 version 22.0.0.2
gem5 compiled Aug  1 2022 08:47:18
gem5 started Aug  2 2022 05:38:57
gem5 executing on codespaces-4933b6, pid 15048
command line: ../gem5/build/X86/gem5.opt --outdir=./result/test3/DDR4_2400_16x4 se.py --cpu-type DerivO3CPU -n 8 --cpu-clock 3GHz --mem-type DDR4_2400_16x4 --mem-channels 4 --caches --l2cache --cmd ./workload/stream_omp.1M_1T

info: Standard input is not a terminal, disabling listeners.
**** REAL SIMULATION ****
-------------------------------------------------------------
STREAM version $Revision: 5.10 $
-------------------------------------------------------------
This system uses 8 bytes per array element.
-------------------------------------------------------------
Array size = 1000000 (elements), Offset = 0 (elements)
Memory per array = 7.6 MiB (= 0.0 GiB).
Total memory required = 22.9 MiB (= 0.0 GiB).
Each kernel will be executed 3 times.
 The *best* time for each kernel (excluding the first iteration)
 will be used to compute the reported bandwidth.
-------------------------------------------------------------
Number of Threads requested = 8
Number of Threads counted = 8
-------------------------------------------------------------
Your clock granularity/precision appears to be 1 microseconds.
Each test below will take on the order of 1388 microseconds.
   (= 1388 clock ticks)
Increase the size of the arrays if this shows that
you are not getting at least 20 clock ticks per test.
-------------------------------------------------------------
WARNING -- The above is only a rough guideline.
For best results, please be sure you know the
precision of your system timer.
-------------------------------------------------------------
Function    Best Rate MB/s  Avg time     Min time     Max time
Copy:           10088.5     0.001586     0.001586     0.001586
Scale:          11258.9     0.001422     0.001421     0.001422
Add:            12195.7     0.001968     0.001968     0.001968
Triad:          12195.0     0.001969     0.001968     0.001969
-------------------------------------------------------------
Solution Validates: avg error less than 1.000000e-13 on all three arrays
-------------------------------------------------------------
Exiting @ tick 37716155091 because exiting with last active thread context
