
---------- Begin Simulation Statistics ----------
simSeconds                                  17.068204                       # Number of seconds simulated (Second)
simTicks                                 17068204277000                       # Number of ticks simulated (Tick)
finalTick                                17068204277000                       # Number of ticks from beginning of simulation (restored from checkpoints and never reset) (Tick)
simFreq                                  1000000000000                       # The number of ticks per simulated second ((Tick/Second))
hostSeconds                                   1041.91                       # Real time elapsed on the host (Second)
hostTickRate                              16381598876                       # The number of ticks simulated per host second (ticks/s) ((Tick/Second))
hostMemory                                     670980                       # Number of bytes of host memory used (Byte)
simInsts                                    135613734                       # Number of instructions simulated (Count)
simOps                                      272069821                       # Number of ops (including micro ops) simulated (Count)
hostInstRate                                   130158                       # Simulator instruction rate (inst/s) ((Count/Second))
hostOpRate                                     261125                       # Simulator op (including micro ops) rate (op/s) ((Count/Second))
system.clk_domain.clock                          1000                       # Clock period in ticks (Tick)
system.cpu.numCycles                      68272817108                       # Number of cpu cycles simulated (Cycle)
system.cpu.numWorkItemsStarted                      0                       # Number of work items this cpu started (Count)
system.cpu.numWorkItemsCompleted                    0                       # Number of work items this cpu completed (Count)
system.cpu.exec_context.thread_0.numInsts    135613734                       # Number of instructions committed (Count)
system.cpu.exec_context.thread_0.numOps     272069821                       # Number of ops (including micro ops) committed (Count)
system.cpu.exec_context.thread_0.numIntAluAccesses    218060464                       # Number of integer alu accesses (Count)
system.cpu.exec_context.thread_0.numFpAluAccesses    119010447                       # Number of float alu accesses (Count)
system.cpu.exec_context.thread_0.numVecAluAccesses            0                       # Number of vector alu accesses (Count)
system.cpu.exec_context.thread_0.numCallsReturns         3874                       # Number of times a function call or return occured (Count)
system.cpu.exec_context.thread_0.numCondCtrlInsts     21669157                       # Number of instructions that are conditional controls (Count)
system.cpu.exec_context.thread_0.numIntInsts    218060464                       # Number of integer instructions (Count)
system.cpu.exec_context.thread_0.numFpInsts    119010447                       # Number of float instructions (Count)
system.cpu.exec_context.thread_0.numVecInsts            0                       # Number of vector instructions (Count)
system.cpu.exec_context.thread_0.numIntRegReads    240569032                       # Number of times the integer registers were read (Count)
system.cpu.exec_context.thread_0.numIntRegWrites    107945595                       # Number of times the integer registers were written (Count)
system.cpu.exec_context.thread_0.numFpRegReads    130014724                       # Number of times the floating registers were read (Count)
system.cpu.exec_context.thread_0.numFpRegWrites     93007838                       # Number of times the floating registers were written (Count)
system.cpu.exec_context.thread_0.numVecRegReads            0                       # Number of times the vector registers were read (Count)
system.cpu.exec_context.thread_0.numVecRegWrites            0                       # Number of times the vector registers were written (Count)
system.cpu.exec_context.thread_0.numVecPredRegReads            0                       # Number of times the predicate registers were read (Count)
system.cpu.exec_context.thread_0.numVecPredRegWrites            0                       # Number of times the predicate registers were written (Count)
system.cpu.exec_context.thread_0.numCCRegReads    114401706                       # Number of times the CC registers were read (Count)
system.cpu.exec_context.thread_0.numCCRegWrites     83172577                       # Number of times the CC registers were written (Count)
system.cpu.exec_context.thread_0.numMiscRegReads    118181337                       # Number of times the Misc registers were read (Count)
system.cpu.exec_context.thread_0.numMiscRegWrites           18                       # Number of times the Misc registers were written (Count)
system.cpu.exec_context.thread_0.numMemRefs     69825433                       # Number of memory refs (Count)
system.cpu.exec_context.thread_0.numLoadInsts     43304618                       # Number of load instructions (Count)
system.cpu.exec_context.thread_0.numStoreInsts     26520815                       # Number of store instructions (Count)
system.cpu.exec_context.thread_0.numIdleCycles     0.004002                       # Number of idle cycles (Cycle)
system.cpu.exec_context.thread_0.numBusyCycles 68272817107.995995                       # Number of busy cycles (Cycle)
system.cpu.exec_context.thread_0.notIdleFraction     1.000000                       # Percentage of non-idle cycles (Ratio)
system.cpu.exec_context.thread_0.idleFraction     0.000000                       # Percentage of idle cycles (Ratio)
system.cpu.exec_context.thread_0.numBranches     21678790                       # Number of branches fetched (Count)
system.cpu.exec_context.thread_0.statExecutedInstType::No_OpClass      2502783      0.91%      0.91% # Class of executed instruction. (Count)
system.cpu.exec_context.thread_0.statExecutedInstType::IntAlu    158233921     57.63%     58.54% # Class of executed instruction. (Count)
system.cpu.exec_context.thread_0.statExecutedInstType::IntMult          202      0.00%     58.54% # Class of executed instruction. (Count)
system.cpu.exec_context.thread_0.statExecutedInstType::IntDiv         1570      0.00%     58.54% # Class of executed instruction. (Count)
system.cpu.exec_context.thread_0.statExecutedInstType::FloatAdd     14000588      5.10%     63.64% # Class of executed instruction. (Count)
system.cpu.exec_context.thread_0.statExecutedInstType::FloatCmp            0      0.00%     63.64% # Class of executed instruction. (Count)
system.cpu.exec_context.thread_0.statExecutedInstType::FloatCvt           32      0.00%     63.64% # Class of executed instruction. (Count)
system.cpu.exec_context.thread_0.statExecutedInstType::FloatMult            0      0.00%     63.64% # Class of executed instruction. (Count)
system.cpu.exec_context.thread_0.statExecutedInstType::FloatMultAcc            0      0.00%     63.64% # Class of executed instruction. (Count)
system.cpu.exec_context.thread_0.statExecutedInstType::FloatDiv            0      0.00%     63.64% # Class of executed instruction. (Count)
system.cpu.exec_context.thread_0.statExecutedInstType::FloatMisc            0      0.00%     63.64% # Class of executed instruction. (Count)
system.cpu.exec_context.thread_0.statExecutedInstType::FloatSqrt            0      0.00%     63.64% # Class of executed instruction. (Count)
system.cpu.exec_context.thread_0.statExecutedInstType::SimdAdd          340      0.00%     63.64% # Class of executed instruction. (Count)
system.cpu.exec_context.thread_0.statExecutedInstType::SimdAddAcc            0      0.00%     63.64% # Class of executed instruction. (Count)
system.cpu.exec_context.thread_0.statExecutedInstType::SimdAlu         1639      0.00%     63.64% # Class of executed instruction. (Count)
system.cpu.exec_context.thread_0.statExecutedInstType::SimdCmp            6      0.00%     63.64% # Class of executed instruction. (Count)
system.cpu.exec_context.thread_0.statExecutedInstType::SimdCvt         1234      0.00%     63.64% # Class of executed instruction. (Count)
system.cpu.exec_context.thread_0.statExecutedInstType::SimdMisc         1575      0.00%     63.64% # Class of executed instruction. (Count)
system.cpu.exec_context.thread_0.statExecutedInstType::SimdMult            0      0.00%     63.64% # Class of executed instruction. (Count)
system.cpu.exec_context.thread_0.statExecutedInstType::SimdMultAcc            0      0.00%     63.64% # Class of executed instruction. (Count)
system.cpu.exec_context.thread_0.statExecutedInstType::SimdShift           99      0.00%     63.64% # Class of executed instruction. (Count)
system.cpu.exec_context.thread_0.statExecutedInstType::SimdShiftAcc            0      0.00%     63.64% # Class of executed instruction. (Count)
system.cpu.exec_context.thread_0.statExecutedInstType::SimdDiv            0      0.00%     63.64% # Class of executed instruction. (Count)
system.cpu.exec_context.thread_0.statExecutedInstType::SimdSqrt            0      0.00%     63.64% # Class of executed instruction. (Count)
system.cpu.exec_context.thread_0.statExecutedInstType::SimdFloatAdd     17000168      6.19%     69.83% # Class of executed instruction. (Count)
system.cpu.exec_context.thread_0.statExecutedInstType::SimdFloatAlu            0      0.00%     69.83% # Class of executed instruction. (Count)
system.cpu.exec_context.thread_0.statExecutedInstType::SimdFloatCmp           32      0.00%     69.83% # Class of executed instruction. (Count)
system.cpu.exec_context.thread_0.statExecutedInstType::SimdFloatCvt      3000254      1.09%     70.93% # Class of executed instruction. (Count)
system.cpu.exec_context.thread_0.statExecutedInstType::SimdFloatDiv           11      0.00%     70.93% # Class of executed instruction. (Count)
system.cpu.exec_context.thread_0.statExecutedInstType::SimdFloatMisc            0      0.00%     70.93% # Class of executed instruction. (Count)
system.cpu.exec_context.thread_0.statExecutedInstType::SimdFloatMult     10000120      3.64%     74.57% # Class of executed instruction. (Count)
system.cpu.exec_context.thread_0.statExecutedInstType::SimdFloatMultAcc            0      0.00%     74.57% # Class of executed instruction. (Count)
system.cpu.exec_context.thread_0.statExecutedInstType::SimdFloatSqrt            0      0.00%     74.57% # Class of executed instruction. (Count)
system.cpu.exec_context.thread_0.statExecutedInstType::SimdReduceAdd            0      0.00%     74.57% # Class of executed instruction. (Count)
system.cpu.exec_context.thread_0.statExecutedInstType::SimdReduceAlu            0      0.00%     74.57% # Class of executed instruction. (Count)
system.cpu.exec_context.thread_0.statExecutedInstType::SimdReduceCmp            0      0.00%     74.57% # Class of executed instruction. (Count)
system.cpu.exec_context.thread_0.statExecutedInstType::SimdFloatReduceAdd            0      0.00%     74.57% # Class of executed instruction. (Count)
system.cpu.exec_context.thread_0.statExecutedInstType::SimdFloatReduceCmp            0      0.00%     74.57% # Class of executed instruction. (Count)
system.cpu.exec_context.thread_0.statExecutedInstType::SimdAes            0      0.00%     74.57% # Class of executed instruction. (Count)
system.cpu.exec_context.thread_0.statExecutedInstType::SimdAesMix            0      0.00%     74.57% # Class of executed instruction. (Count)
system.cpu.exec_context.thread_0.statExecutedInstType::SimdSha1Hash            0      0.00%     74.57% # Class of executed instruction. (Count)
system.cpu.exec_context.thread_0.statExecutedInstType::SimdSha1Hash2            0      0.00%     74.57% # Class of executed instruction. (Count)
system.cpu.exec_context.thread_0.statExecutedInstType::SimdSha256Hash            0      0.00%     74.57% # Class of executed instruction. (Count)
system.cpu.exec_context.thread_0.statExecutedInstType::SimdSha256Hash2            0      0.00%     74.57% # Class of executed instruction. (Count)
system.cpu.exec_context.thread_0.statExecutedInstType::SimdShaSigma2            0      0.00%     74.57% # Class of executed instruction. (Count)
system.cpu.exec_context.thread_0.statExecutedInstType::SimdShaSigma3            0      0.00%     74.57% # Class of executed instruction. (Count)
system.cpu.exec_context.thread_0.statExecutedInstType::SimdPredAlu            0      0.00%     74.57% # Class of executed instruction. (Count)
system.cpu.exec_context.thread_0.statExecutedInstType::MemRead      1302562      0.47%     75.04% # Class of executed instruction. (Count)
system.cpu.exec_context.thread_0.statExecutedInstType::MemWrite      3519137      1.28%     76.33% # Class of executed instruction. (Count)
system.cpu.exec_context.thread_0.statExecutedInstType::FloatMemRead     42002056     15.30%     91.62% # Class of executed instruction. (Count)
system.cpu.exec_context.thread_0.statExecutedInstType::FloatMemWrite     23001678      8.38%    100.00% # Class of executed instruction. (Count)
system.cpu.exec_context.thread_0.statExecutedInstType::IprAccess            0      0.00%    100.00% # Class of executed instruction. (Count)
system.cpu.exec_context.thread_0.statExecutedInstType::InstPrefetch            0      0.00%    100.00% # Class of executed instruction. (Count)
system.cpu.exec_context.thread_0.statExecutedInstType::total    274570007                       # Class of executed instruction. (Count)
system.cpu.interrupts.clk_domain.clock           4000                       # Clock period in ticks (Tick)
system.cpu.mmu.dtb.rdAccesses                43304657                       # TLB accesses on read requests (Count)
system.cpu.mmu.dtb.wrAccesses                26520837                       # TLB accesses on write requests (Count)
system.cpu.mmu.dtb.rdMisses                     66687                       # TLB misses on read requests (Count)
system.cpu.mmu.dtb.wrMisses                     44988                       # TLB misses on write requests (Count)
system.cpu.mmu.dtb.walker.power_state.pwrStateResidencyTicks::UNDEFINED 17068204277000                       # Cumulative time (in ticks) in various power states (Tick)
system.cpu.mmu.itb.rdAccesses                       0                       # TLB accesses on read requests (Count)
system.cpu.mmu.itb.wrAccesses               209811984                       # TLB accesses on write requests (Count)
system.cpu.mmu.itb.rdMisses                         0                       # TLB misses on read requests (Count)
system.cpu.mmu.itb.wrMisses                       175                       # TLB misses on write requests (Count)
system.cpu.mmu.itb.walker.power_state.pwrStateResidencyTicks::UNDEFINED 17068204277000                       # Cumulative time (in ticks) in various power states (Tick)
system.cpu.power_state.pwrStateResidencyTicks::ON 17068204277000                       # Cumulative time (in ticks) in various power states (Tick)
system.cpu.thread_0.numInsts                        0                       # Number of Instructions committed (Count)
system.cpu.thread_0.numOps                          0                       # Number of Ops committed (Count)
system.cpu.thread_0.numMemRefs                      0                       # Number of Memory References (Count)
system.cpu.workload.numSyscalls                   145                       # Number of system calls (Count)
system.cpu_clk_domain.clock                       250                       # Clock period in ticks (Tick)
system.cpu_voltage_domain.voltage                   1                       # Voltage in Volts (Volt)
system.mem_ctrls0.avgPriority_cpu.inst::samples 101926249.00                       # Average QoS priority value for accepted requests (Count)
system.mem_ctrls0.avgPriority_cpu.data::samples  27688277.00                       # Average QoS priority value for accepted requests (Count)
system.mem_ctrls0.priorityMinLatency     0.000000020000                       # per QoS priority minimum request to response latency (Second)
system.mem_ctrls0.priorityMaxLatency     4.193781985000                       # per QoS priority maximum request to response latency (Second)
system.mem_ctrls0.numReadWriteTurnArounds       168765                       # Number of turnarounds from READ to WRITE (Count)
system.mem_ctrls0.numWriteReadTurnArounds       168765                       # Number of turnarounds from WRITE to READ (Count)
system.mem_ctrls0.numStayReadState          269555956                       # Number of times bus staying in READ state (Count)
system.mem_ctrls0.numStayWriteState           2869244                       # Number of times bus staying in WRITE state (Count)
system.mem_ctrls0.readReqs                  126580143                       # Number of read requests accepted (Count)
system.mem_ctrls0.writeReqs                  12010042                       # Number of write requests accepted (Count)
system.mem_ctrls0.readBursts                126580165                       # Number of controller read bursts, including those serviced by the write queue (Count)
system.mem_ctrls0.writeBursts                12010042                       # Number of controller write bursts, including those merged in the write queue (Count)
system.mem_ctrls0.servicedByWrQ                  2854                       # Number of controller read bursts serviced by the write queue (Count)
system.mem_ctrls0.mergedWrBursts              8972827                       # Number of controller write bursts merged with an existing one (Count)
system.mem_ctrls0.neitherReadNorWriteReqs            0                       # Number of requests that are neither read nor write (Count)
system.mem_ctrls0.avgRdQLen                      1.00                       # Average read queue length when enqueuing ((Count/Tick))
system.mem_ctrls0.avgWrQLen                     24.94                       # Average write queue length when enqueuing ((Count/Tick))
system.mem_ctrls0.numRdRetry                        0                       # Number of times read queue was full causing retry (Count)
system.mem_ctrls0.numWrRetry                        0                       # Number of times write queue was full causing retry (Count)
system.mem_ctrls0.readPktSize::0               630457                       # Read request sizes (log2) (Count)
system.mem_ctrls0.readPktSize::1                 1583                       # Read request sizes (log2) (Count)
system.mem_ctrls0.readPktSize::2                 4607                       # Read request sizes (log2) (Count)
system.mem_ctrls0.readPktSize::3            125943518                       # Read request sizes (log2) (Count)
system.mem_ctrls0.readPktSize::4                    0                       # Read request sizes (log2) (Count)
system.mem_ctrls0.readPktSize::5                    0                       # Read request sizes (log2) (Count)
system.mem_ctrls0.readPktSize::6                    0                       # Read request sizes (log2) (Count)
system.mem_ctrls0.writePktSize::0                 182                       # Write request sizes (log2) (Count)
system.mem_ctrls0.writePktSize::1                  43                       # Write request sizes (log2) (Count)
system.mem_ctrls0.writePktSize::2                1231                       # Write request sizes (log2) (Count)
system.mem_ctrls0.writePktSize::3            12008586                       # Write request sizes (log2) (Count)
system.mem_ctrls0.writePktSize::4                   0                       # Write request sizes (log2) (Count)
system.mem_ctrls0.writePktSize::5                   0                       # Write request sizes (log2) (Count)
system.mem_ctrls0.writePktSize::6                   0                       # Write request sizes (log2) (Count)
system.mem_ctrls0.rdQLenPdf::0              126577289                       # What read queue length does an incoming req see (Count)
system.mem_ctrls0.rdQLenPdf::1                     22                       # What read queue length does an incoming req see (Count)
system.mem_ctrls0.rdQLenPdf::2                      0                       # What read queue length does an incoming req see (Count)
system.mem_ctrls0.rdQLenPdf::3                      0                       # What read queue length does an incoming req see (Count)
system.mem_ctrls0.rdQLenPdf::4                      0                       # What read queue length does an incoming req see (Count)
system.mem_ctrls0.rdQLenPdf::5                      0                       # What read queue length does an incoming req see (Count)
system.mem_ctrls0.rdQLenPdf::6                      0                       # What read queue length does an incoming req see (Count)
system.mem_ctrls0.rdQLenPdf::7                      0                       # What read queue length does an incoming req see (Count)
system.mem_ctrls0.rdQLenPdf::8                      0                       # What read queue length does an incoming req see (Count)
system.mem_ctrls0.rdQLenPdf::9                      0                       # What read queue length does an incoming req see (Count)
system.mem_ctrls0.rdQLenPdf::10                     0                       # What read queue length does an incoming req see (Count)
system.mem_ctrls0.rdQLenPdf::11                     0                       # What read queue length does an incoming req see (Count)
system.mem_ctrls0.rdQLenPdf::12                     0                       # What read queue length does an incoming req see (Count)
system.mem_ctrls0.rdQLenPdf::13                     0                       # What read queue length does an incoming req see (Count)
system.mem_ctrls0.rdQLenPdf::14                     0                       # What read queue length does an incoming req see (Count)
system.mem_ctrls0.rdQLenPdf::15                     0                       # What read queue length does an incoming req see (Count)
system.mem_ctrls0.rdQLenPdf::16                     0                       # What read queue length does an incoming req see (Count)
system.mem_ctrls0.rdQLenPdf::17                     0                       # What read queue length does an incoming req see (Count)
system.mem_ctrls0.rdQLenPdf::18                     0                       # What read queue length does an incoming req see (Count)
system.mem_ctrls0.rdQLenPdf::19                     0                       # What read queue length does an incoming req see (Count)
system.mem_ctrls0.rdQLenPdf::20                     0                       # What read queue length does an incoming req see (Count)
system.mem_ctrls0.rdQLenPdf::21                     0                       # What read queue length does an incoming req see (Count)
system.mem_ctrls0.rdQLenPdf::22                     0                       # What read queue length does an incoming req see (Count)
system.mem_ctrls0.rdQLenPdf::23                     0                       # What read queue length does an incoming req see (Count)
system.mem_ctrls0.rdQLenPdf::24                     0                       # What read queue length does an incoming req see (Count)
system.mem_ctrls0.rdQLenPdf::25                     0                       # What read queue length does an incoming req see (Count)
system.mem_ctrls0.rdQLenPdf::26                     0                       # What read queue length does an incoming req see (Count)
system.mem_ctrls0.rdQLenPdf::27                     0                       # What read queue length does an incoming req see (Count)
system.mem_ctrls0.rdQLenPdf::28                     0                       # What read queue length does an incoming req see (Count)
system.mem_ctrls0.rdQLenPdf::29                     0                       # What read queue length does an incoming req see (Count)
system.mem_ctrls0.rdQLenPdf::30                     0                       # What read queue length does an incoming req see (Count)
system.mem_ctrls0.rdQLenPdf::31                     0                       # What read queue length does an incoming req see (Count)
system.mem_ctrls0.rdQLenPdf::32                     0                       # What read queue length does an incoming req see (Count)
system.mem_ctrls0.rdQLenPdf::33                     0                       # What read queue length does an incoming req see (Count)
system.mem_ctrls0.rdQLenPdf::34                     0                       # What read queue length does an incoming req see (Count)
system.mem_ctrls0.rdQLenPdf::35                     0                       # What read queue length does an incoming req see (Count)
system.mem_ctrls0.rdQLenPdf::36                     0                       # What read queue length does an incoming req see (Count)
system.mem_ctrls0.rdQLenPdf::37                     0                       # What read queue length does an incoming req see (Count)
system.mem_ctrls0.rdQLenPdf::38                     0                       # What read queue length does an incoming req see (Count)
system.mem_ctrls0.rdQLenPdf::39                     0                       # What read queue length does an incoming req see (Count)
system.mem_ctrls0.rdQLenPdf::40                     0                       # What read queue length does an incoming req see (Count)
system.mem_ctrls0.rdQLenPdf::41                     0                       # What read queue length does an incoming req see (Count)
system.mem_ctrls0.rdQLenPdf::42                     0                       # What read queue length does an incoming req see (Count)
system.mem_ctrls0.rdQLenPdf::43                     0                       # What read queue length does an incoming req see (Count)
system.mem_ctrls0.rdQLenPdf::44                     0                       # What read queue length does an incoming req see (Count)
system.mem_ctrls0.rdQLenPdf::45                     0                       # What read queue length does an incoming req see (Count)
system.mem_ctrls0.rdQLenPdf::46                     0                       # What read queue length does an incoming req see (Count)
system.mem_ctrls0.rdQLenPdf::47                     0                       # What read queue length does an incoming req see (Count)
system.mem_ctrls0.rdQLenPdf::48                     0                       # What read queue length does an incoming req see (Count)
system.mem_ctrls0.rdQLenPdf::49                     0                       # What read queue length does an incoming req see (Count)
system.mem_ctrls0.rdQLenPdf::50                     0                       # What read queue length does an incoming req see (Count)
system.mem_ctrls0.rdQLenPdf::51                     0                       # What read queue length does an incoming req see (Count)
system.mem_ctrls0.rdQLenPdf::52                     0                       # What read queue length does an incoming req see (Count)
system.mem_ctrls0.rdQLenPdf::53                     0                       # What read queue length does an incoming req see (Count)
system.mem_ctrls0.rdQLenPdf::54                     0                       # What read queue length does an incoming req see (Count)
system.mem_ctrls0.rdQLenPdf::55                     0                       # What read queue length does an incoming req see (Count)
system.mem_ctrls0.rdQLenPdf::56                     0                       # What read queue length does an incoming req see (Count)
system.mem_ctrls0.rdQLenPdf::57                     0                       # What read queue length does an incoming req see (Count)
system.mem_ctrls0.rdQLenPdf::58                     0                       # What read queue length does an incoming req see (Count)
system.mem_ctrls0.rdQLenPdf::59                     0                       # What read queue length does an incoming req see (Count)
system.mem_ctrls0.rdQLenPdf::60                     0                       # What read queue length does an incoming req see (Count)
system.mem_ctrls0.rdQLenPdf::61                     0                       # What read queue length does an incoming req see (Count)
system.mem_ctrls0.rdQLenPdf::62                     0                       # What read queue length does an incoming req see (Count)
system.mem_ctrls0.rdQLenPdf::63                     0                       # What read queue length does an incoming req see (Count)
system.mem_ctrls0.wrQLenPdf::0                      1                       # What write queue length does an incoming req see (Count)
system.mem_ctrls0.wrQLenPdf::1                      1                       # What write queue length does an incoming req see (Count)
system.mem_ctrls0.wrQLenPdf::2                      1                       # What write queue length does an incoming req see (Count)
system.mem_ctrls0.wrQLenPdf::3                      1                       # What write queue length does an incoming req see (Count)
system.mem_ctrls0.wrQLenPdf::4                      1                       # What write queue length does an incoming req see (Count)
system.mem_ctrls0.wrQLenPdf::5                      1                       # What write queue length does an incoming req see (Count)
system.mem_ctrls0.wrQLenPdf::6                      1                       # What write queue length does an incoming req see (Count)
system.mem_ctrls0.wrQLenPdf::7                      1                       # What write queue length does an incoming req see (Count)
system.mem_ctrls0.wrQLenPdf::8                      1                       # What write queue length does an incoming req see (Count)
system.mem_ctrls0.wrQLenPdf::9                      1                       # What write queue length does an incoming req see (Count)
system.mem_ctrls0.wrQLenPdf::10                     1                       # What write queue length does an incoming req see (Count)
system.mem_ctrls0.wrQLenPdf::11                     1                       # What write queue length does an incoming req see (Count)
system.mem_ctrls0.wrQLenPdf::12                     1                       # What write queue length does an incoming req see (Count)
system.mem_ctrls0.wrQLenPdf::13                     1                       # What write queue length does an incoming req see (Count)
system.mem_ctrls0.wrQLenPdf::14                     1                       # What write queue length does an incoming req see (Count)
system.mem_ctrls0.wrQLenPdf::15                168471                       # What write queue length does an incoming req see (Count)
system.mem_ctrls0.wrQLenPdf::16                168474                       # What write queue length does an incoming req see (Count)
system.mem_ctrls0.wrQLenPdf::17                168766                       # What write queue length does an incoming req see (Count)
system.mem_ctrls0.wrQLenPdf::18                168766                       # What write queue length does an incoming req see (Count)
system.mem_ctrls0.wrQLenPdf::19                168766                       # What write queue length does an incoming req see (Count)
system.mem_ctrls0.wrQLenPdf::20                168766                       # What write queue length does an incoming req see (Count)
system.mem_ctrls0.wrQLenPdf::21                168766                       # What write queue length does an incoming req see (Count)
system.mem_ctrls0.wrQLenPdf::22                168766                       # What write queue length does an incoming req see (Count)
system.mem_ctrls0.wrQLenPdf::23                168766                       # What write queue length does an incoming req see (Count)
system.mem_ctrls0.wrQLenPdf::24                168766                       # What write queue length does an incoming req see (Count)
system.mem_ctrls0.wrQLenPdf::25                168766                       # What write queue length does an incoming req see (Count)
system.mem_ctrls0.wrQLenPdf::26                168766                       # What write queue length does an incoming req see (Count)
system.mem_ctrls0.wrQLenPdf::27                168766                       # What write queue length does an incoming req see (Count)
system.mem_ctrls0.wrQLenPdf::28                168766                       # What write queue length does an incoming req see (Count)
system.mem_ctrls0.wrQLenPdf::29                168766                       # What write queue length does an incoming req see (Count)
system.mem_ctrls0.wrQLenPdf::30                168766                       # What write queue length does an incoming req see (Count)
system.mem_ctrls0.wrQLenPdf::31                168766                       # What write queue length does an incoming req see (Count)
system.mem_ctrls0.wrQLenPdf::32                168765                       # What write queue length does an incoming req see (Count)
system.mem_ctrls0.wrQLenPdf::33                     0                       # What write queue length does an incoming req see (Count)
system.mem_ctrls0.wrQLenPdf::34                     0                       # What write queue length does an incoming req see (Count)
system.mem_ctrls0.wrQLenPdf::35                     0                       # What write queue length does an incoming req see (Count)
system.mem_ctrls0.wrQLenPdf::36                     0                       # What write queue length does an incoming req see (Count)
system.mem_ctrls0.wrQLenPdf::37                     0                       # What write queue length does an incoming req see (Count)
system.mem_ctrls0.wrQLenPdf::38                     0                       # What write queue length does an incoming req see (Count)
system.mem_ctrls0.wrQLenPdf::39                     0                       # What write queue length does an incoming req see (Count)
system.mem_ctrls0.wrQLenPdf::40                     0                       # What write queue length does an incoming req see (Count)
system.mem_ctrls0.wrQLenPdf::41                     0                       # What write queue length does an incoming req see (Count)
system.mem_ctrls0.wrQLenPdf::42                     0                       # What write queue length does an incoming req see (Count)
system.mem_ctrls0.wrQLenPdf::43                     0                       # What write queue length does an incoming req see (Count)
system.mem_ctrls0.wrQLenPdf::44                     0                       # What write queue length does an incoming req see (Count)
system.mem_ctrls0.wrQLenPdf::45                     0                       # What write queue length does an incoming req see (Count)
system.mem_ctrls0.wrQLenPdf::46                     0                       # What write queue length does an incoming req see (Count)
system.mem_ctrls0.wrQLenPdf::47                     0                       # What write queue length does an incoming req see (Count)
system.mem_ctrls0.wrQLenPdf::48                     0                       # What write queue length does an incoming req see (Count)
system.mem_ctrls0.wrQLenPdf::49                     0                       # What write queue length does an incoming req see (Count)
system.mem_ctrls0.wrQLenPdf::50                     0                       # What write queue length does an incoming req see (Count)
system.mem_ctrls0.wrQLenPdf::51                     0                       # What write queue length does an incoming req see (Count)
system.mem_ctrls0.wrQLenPdf::52                     0                       # What write queue length does an incoming req see (Count)
system.mem_ctrls0.wrQLenPdf::53                     0                       # What write queue length does an incoming req see (Count)
system.mem_ctrls0.wrQLenPdf::54                     0                       # What write queue length does an incoming req see (Count)
system.mem_ctrls0.wrQLenPdf::55                     0                       # What write queue length does an incoming req see (Count)
system.mem_ctrls0.wrQLenPdf::56                     0                       # What write queue length does an incoming req see (Count)
system.mem_ctrls0.wrQLenPdf::57                     0                       # What write queue length does an incoming req see (Count)
system.mem_ctrls0.wrQLenPdf::58                     0                       # What write queue length does an incoming req see (Count)
system.mem_ctrls0.wrQLenPdf::59                     0                       # What write queue length does an incoming req see (Count)
system.mem_ctrls0.wrQLenPdf::60                     0                       # What write queue length does an incoming req see (Count)
system.mem_ctrls0.wrQLenPdf::61                     0                       # What write queue length does an incoming req see (Count)
system.mem_ctrls0.wrQLenPdf::62                     0                       # What write queue length does an incoming req see (Count)
system.mem_ctrls0.wrQLenPdf::63                     0                       # What write queue length does an incoming req see (Count)
system.mem_ctrls0.rdPerTurnAround::samples       168765                       # Reads before turning the bus around for writes (Count)
system.mem_ctrls0.rdPerTurnAround::mean    750.015850                       # Reads before turning the bus around for writes (Count)
system.mem_ctrls0.rdPerTurnAround::stdev 25631.448374                       # Reads before turning the bus around for writes (Count)
system.mem_ctrls0.rdPerTurnAround::0-262143       168764    100.00%    100.00% # Reads before turning the bus around for writes (Count)
system.mem_ctrls0.rdPerTurnAround::1.04858e+07-1.07479e+07            1      0.00%    100.00% # Reads before turning the bus around for writes (Count)
system.mem_ctrls0.rdPerTurnAround::total       168765                       # Reads before turning the bus around for writes (Count)
system.mem_ctrls0.wrPerTurnAround::samples       168765                       # Writes before turning the bus around for reads (Count)
system.mem_ctrls0.wrPerTurnAround::mean     17.996522                       # Writes before turning the bus around for reads (Count)
system.mem_ctrls0.wrPerTurnAround::gmean    17.996314                       # Writes before turning the bus around for reads (Count)
system.mem_ctrls0.wrPerTurnAround::stdev     0.083226                       # Writes before turning the bus around for reads (Count)
system.mem_ctrls0.wrPerTurnAround::16             292      0.17%      0.17% # Writes before turning the bus around for reads (Count)
system.mem_ctrls0.wrPerTurnAround::17               3      0.00%      0.17% # Writes before turning the bus around for reads (Count)
system.mem_ctrls0.wrPerTurnAround::18          168470     99.83%    100.00% # Writes before turning the bus around for reads (Count)
system.mem_ctrls0.wrPerTurnAround::total       168765                       # Writes before turning the bus around for reads (Count)
system.mem_ctrls0.bytesReadWrQ                  91328                       # Total number of bytes read from write queue (Byte)
system.mem_ctrls0.bytesReadSys             1008200109                       # Total read bytes from the system interface side (Byte)
system.mem_ctrls0.bytesWrittenSys            96073863                       # Total written bytes from the system interface side (Byte)
system.mem_ctrls0.avgRdBWSys             59068903.36194211                       # Average system read bandwidth in Byte/s ((Byte/Second))
system.mem_ctrls0.avgWrBWSys             5628820.78517556                       # Average system write bandwidth in Byte/s ((Byte/Second))
system.mem_ctrls0.totGap                 17068203953000                       # Total gap between requests (Tick)
system.mem_ctrls0.avgGap                    123155.94                       # Average gap between requests ((Tick/Count))
system.mem_ctrls0.requestorReadBytes::cpu.inst    815409992                       # Per-requestor bytes read from memory (Byte)
system.mem_ctrls0.requestorReadBytes::cpu.data    192769555                       # Per-requestor bytes read from memory (Byte)
system.mem_ctrls0.requestorWriteBytes::cpu.data     24297072                       # Per-requestor bytes write to memory (Byte)
system.mem_ctrls0.requestorReadRate::cpu.inst 47773625.084789581597                       # Per-requestor bytes read from memory rate ((Byte/Second))
system.mem_ctrls0.requestorReadRate::cpu.data 11294073.581001352519                       # Per-requestor bytes read from memory rate ((Byte/Second))
system.mem_ctrls0.requestorWriteRate::cpu.data 1423528.310634361813                       # Per-requestor bytes write to memory rate ((Byte/Second))
system.mem_ctrls0.requestorReadAccesses::cpu.inst    101926249                       # Per-requestor read serviced memory accesses (Count)
system.mem_ctrls0.requestorReadAccesses::cpu.data     24653916                       # Per-requestor read serviced memory accesses (Count)
system.mem_ctrls0.requestorWriteAccesses::cpu.data     12010042                       # Per-requestor write serviced memory accesses (Count)
system.mem_ctrls0.requestorReadTotalLat::cpu.inst 3600689366000                       # Per-requestor read total memory access latency (Tick)
system.mem_ctrls0.requestorReadTotalLat::cpu.data 882058989000                       # Per-requestor read total memory access latency (Tick)
system.mem_ctrls0.requestorWriteTotalLat::cpu.data 383658257909000                       # Per-requestor write total memory access latency (Tick)
system.mem_ctrls0.requestorReadAvgLat::cpu.inst     35326.42                       # Per-requestor read average memory access latency ((Tick/Count))
system.mem_ctrls0.requestorReadAvgLat::cpu.data     35777.64                       # Per-requestor read average memory access latency ((Tick/Count))
system.mem_ctrls0.requestorWriteAvgLat::cpu.data  31944789.03                       # Per-requestor write average memory access latency ((Tick/Count))
system.mem_ctrls0.dram.bytesRead::cpu.inst    815409992                       # Number of bytes read from this memory (Byte)
system.mem_ctrls0.dram.bytesRead::cpu.data    192790117                       # Number of bytes read from this memory (Byte)
system.mem_ctrls0.dram.bytesRead::total    1008200109                       # Number of bytes read from this memory (Byte)
system.mem_ctrls0.dram.bytesInstRead::cpu.inst    815409992                       # Number of instructions bytes read from this memory (Byte)
system.mem_ctrls0.dram.bytesInstRead::total    815409992                       # Number of instructions bytes read from this memory (Byte)
system.mem_ctrls0.dram.bytesWritten::cpu.data     96073863                       # Number of bytes written to this memory (Byte)
system.mem_ctrls0.dram.bytesWritten::total     96073863                       # Number of bytes written to this memory (Byte)
system.mem_ctrls0.dram.numReads::cpu.inst    101926249                       # Number of read requests responded to by this memory (Count)
system.mem_ctrls0.dram.numReads::cpu.data     24653894                       # Number of read requests responded to by this memory (Count)
system.mem_ctrls0.dram.numReads::total      126580143                       # Number of read requests responded to by this memory (Count)
system.mem_ctrls0.dram.numWrites::cpu.data     12010042                       # Number of write requests responded to by this memory (Count)
system.mem_ctrls0.dram.numWrites::total      12010042                       # Number of write requests responded to by this memory (Count)
system.mem_ctrls0.dram.bwRead::cpu.inst      47773625                       # Total read bandwidth from this memory ((Byte/Second))
system.mem_ctrls0.dram.bwRead::cpu.data      11295278                       # Total read bandwidth from this memory ((Byte/Second))
system.mem_ctrls0.dram.bwRead::total         59068903                       # Total read bandwidth from this memory ((Byte/Second))
system.mem_ctrls0.dram.bwInstRead::cpu.inst     47773625                       # Instruction read bandwidth from this memory ((Byte/Second))
system.mem_ctrls0.dram.bwInstRead::total     47773625                       # Instruction read bandwidth from this memory ((Byte/Second))
system.mem_ctrls0.dram.bwWrite::cpu.data      5628821                       # Write bandwidth from this memory ((Byte/Second))
system.mem_ctrls0.dram.bwWrite::total         5628821                       # Write bandwidth from this memory ((Byte/Second))
system.mem_ctrls0.dram.bwTotal::cpu.inst     47773625                       # Total bandwidth to/from this memory ((Byte/Second))
system.mem_ctrls0.dram.bwTotal::cpu.data     16924099                       # Total bandwidth to/from this memory ((Byte/Second))
system.mem_ctrls0.dram.bwTotal::total        64697724                       # Total bandwidth to/from this memory ((Byte/Second))
system.mem_ctrls0.dram.readBursts           126577311                       # Number of DRAM read bursts (Count)
system.mem_ctrls0.dram.writeBursts            3037183                       # Number of DRAM write bursts (Count)
system.mem_ctrls0.dram.perBankRdBursts::0      1107092                       # Per bank write bursts (Count)
system.mem_ctrls0.dram.perBankRdBursts::1      1105626                       # Per bank write bursts (Count)
system.mem_ctrls0.dram.perBankRdBursts::2      8105640                       # Per bank write bursts (Count)
system.mem_ctrls0.dram.perBankRdBursts::3     82103075                       # Per bank write bursts (Count)
system.mem_ctrls0.dram.perBankRdBursts::4      6104640                       # Per bank write bursts (Count)
system.mem_ctrls0.dram.perBankRdBursts::5      1106073                       # Per bank write bursts (Count)
system.mem_ctrls0.dram.perBankRdBursts::6      1116513                       # Per bank write bursts (Count)
system.mem_ctrls0.dram.perBankRdBursts::7      1108815                       # Per bank write bursts (Count)
system.mem_ctrls0.dram.perBankRdBursts::8      1127063                       # Per bank write bursts (Count)
system.mem_ctrls0.dram.perBankRdBursts::9      1104830                       # Per bank write bursts (Count)
system.mem_ctrls0.dram.perBankRdBursts::10      1106534                       # Per bank write bursts (Count)
system.mem_ctrls0.dram.perBankRdBursts::11      1111507                       # Per bank write bursts (Count)
system.mem_ctrls0.dram.perBankRdBursts::12      1184479                       # Per bank write bursts (Count)
system.mem_ctrls0.dram.perBankRdBursts::13      1107628                       # Per bank write bursts (Count)
system.mem_ctrls0.dram.perBankRdBursts::14      1110488                       # Per bank write bursts (Count)
system.mem_ctrls0.dram.perBankRdBursts::15     16867308                       # Per bank write bursts (Count)
system.mem_ctrls0.dram.perBankWrBursts::0       189706                       # Per bank write bursts (Count)
system.mem_ctrls0.dram.perBankWrBursts::1       189716                       # Per bank write bursts (Count)
system.mem_ctrls0.dram.perBankWrBursts::2       189701                       # Per bank write bursts (Count)
system.mem_ctrls0.dram.perBankWrBursts::3       189757                       # Per bank write bursts (Count)
system.mem_ctrls0.dram.perBankWrBursts::4       189702                       # Per bank write bursts (Count)
system.mem_ctrls0.dram.perBankWrBursts::5       189666                       # Per bank write bursts (Count)
system.mem_ctrls0.dram.perBankWrBursts::6       189809                       # Per bank write bursts (Count)
system.mem_ctrls0.dram.perBankWrBursts::7       189644                       # Per bank write bursts (Count)
system.mem_ctrls0.dram.perBankWrBursts::8       189986                       # Per bank write bursts (Count)
system.mem_ctrls0.dram.perBankWrBursts::9       190040                       # Per bank write bursts (Count)
system.mem_ctrls0.dram.perBankWrBursts::10       189940                       # Per bank write bursts (Count)
system.mem_ctrls0.dram.perBankWrBursts::11       189890                       # Per bank write bursts (Count)
system.mem_ctrls0.dram.perBankWrBursts::12       189987                       # Per bank write bursts (Count)
system.mem_ctrls0.dram.perBankWrBursts::13       189886                       # Per bank write bursts (Count)
system.mem_ctrls0.dram.perBankWrBursts::14       189885                       # Per bank write bursts (Count)
system.mem_ctrls0.dram.perBankWrBursts::15       189868                       # Per bank write bursts (Count)
system.mem_ctrls0.dram.totQLat           1951202135000                       # Total ticks spent queuing (Tick)
system.mem_ctrls0.dram.totBusLat         253154622000                       # Total ticks spent in databus transfers (Tick)
system.mem_ctrls0.dram.totMemAccLat      4482748355000                       # Total ticks spent from burst creation until serviced by the DRAM (Tick)
system.mem_ctrls0.dram.avgQLat               15415.10                       # Average queueing delay per DRAM burst ((Tick/Count))
system.mem_ctrls0.dram.avgBusLat              2000.00                       # Average bus latency per DRAM burst ((Tick/Count))
system.mem_ctrls0.dram.avgMemAccLat          35415.10                       # Average memory access latency per DRAM burst ((Tick/Count))
system.mem_ctrls0.dram.readRowHits               4852                       # Number of row buffer hits during reads (Count)
system.mem_ctrls0.dram.writeRowHits           2607051                       # Number of row buffer hits during writes (Count)
system.mem_ctrls0.dram.readRowHitRate            0.00                       # Row buffer hit rate for reads (Ratio)
system.mem_ctrls0.dram.writeRowHitRate          85.84                       # Row buffer hit rate for writes (Ratio)
system.mem_ctrls0.dram.bytesPerActivate::samples    127002591                       # Bytes accessed per row activation (Byte)
system.mem_ctrls0.dram.bytesPerActivate::mean    32.658104                       # Bytes accessed per row activation (Byte)
system.mem_ctrls0.dram.bytesPerActivate::gmean    32.198810                       # Bytes accessed per row activation (Byte)
system.mem_ctrls0.dram.bytesPerActivate::stdev    12.318080                       # Bytes accessed per row activation (Byte)
system.mem_ctrls0.dram.bytesPerActivate::32-63    126598920     99.68%     99.68% # Bytes accessed per row activation (Byte)
system.mem_ctrls0.dram.bytesPerActivate::64-95        14704      0.01%     99.69% # Bytes accessed per row activation (Byte)
system.mem_ctrls0.dram.bytesPerActivate::96-127        15768      0.01%     99.71% # Bytes accessed per row activation (Byte)
system.mem_ctrls0.dram.bytesPerActivate::128-159        15190      0.01%     99.72% # Bytes accessed per row activation (Byte)
system.mem_ctrls0.dram.bytesPerActivate::160-191        54357      0.04%     99.76% # Bytes accessed per row activation (Byte)
system.mem_ctrls0.dram.bytesPerActivate::192-223         5011      0.00%     99.76% # Bytes accessed per row activation (Byte)
system.mem_ctrls0.dram.bytesPerActivate::224-255        28419      0.02%     99.79% # Bytes accessed per row activation (Byte)
system.mem_ctrls0.dram.bytesPerActivate::256-287       137377      0.11%     99.90% # Bytes accessed per row activation (Byte)
system.mem_ctrls0.dram.bytesPerActivate::288-319        50443      0.04%     99.94% # Bytes accessed per row activation (Byte)
system.mem_ctrls0.dram.bytesPerActivate::320-351        82220      0.06%    100.00% # Bytes accessed per row activation (Byte)
system.mem_ctrls0.dram.bytesPerActivate::352-383           79      0.00%    100.00% # Bytes accessed per row activation (Byte)
system.mem_ctrls0.dram.bytesPerActivate::384-415           98      0.00%    100.00% # Bytes accessed per row activation (Byte)
system.mem_ctrls0.dram.bytesPerActivate::416-447            2      0.00%    100.00% # Bytes accessed per row activation (Byte)
system.mem_ctrls0.dram.bytesPerActivate::448-479            1      0.00%    100.00% # Bytes accessed per row activation (Byte)
system.mem_ctrls0.dram.bytesPerActivate::480-511            2      0.00%    100.00% # Bytes accessed per row activation (Byte)
system.mem_ctrls0.dram.bytesPerActivate::total    127002591                       # Bytes accessed per row activation (Byte)
system.mem_ctrls0.dram.bytesRead           4050473952                       # Total bytes read (Byte)
system.mem_ctrls0.dram.bytesWritten          97189856                       # Total bytes written (Byte)
system.mem_ctrls0.dram.avgRdBW             237.311078                       # Average DRAM read bandwidth in MiBytes/s ((Byte/Second))
system.mem_ctrls0.dram.avgWrBW               5.694205                       # Average DRAM write bandwidth in MiBytes/s ((Byte/Second))
system.mem_ctrls0.dram.peakBW                16000.00                       # Theoretical peak bandwidth in MiByte/s ((Byte/Second))
system.mem_ctrls0.dram.busUtil                   1.52                       # Data bus utilization in percentage (Ratio)
system.mem_ctrls0.dram.busUtilRead               1.48                       # Data bus utilization in percentage for reads (Ratio)
system.mem_ctrls0.dram.busUtilWrite              0.04                       # Data bus utilization in percentage for writes (Ratio)
system.mem_ctrls0.dram.pageHitRate               2.02                       # Row buffer hit rate, read and write combined (Ratio)
system.mem_ctrls0.dram.power_state.pwrStateResidencyTicks::UNDEFINED 17068204277000                       # Cumulative time (in ticks) in various power states (Tick)
system.mem_ctrls0.dram.rank0.actEnergy              0                       # Energy for activate commands per rank (pJ) (Joule)
system.mem_ctrls0.dram.rank0.preEnergy              0                       # Energy for precharge commands per rank (pJ) (Joule)
system.mem_ctrls0.dram.rank0.readEnergy             0                       # Energy for read commands per rank (pJ) (Joule)
system.mem_ctrls0.dram.rank0.writeEnergy            0                       # Energy for write commands per rank (pJ) (Joule)
system.mem_ctrls0.dram.rank0.refreshEnergy            0                       # Energy for refresh commands per rank (pJ) (Joule)
system.mem_ctrls0.dram.rank0.actBackEnergy            0                       # Energy for active background per rank (pJ) (Joule)
system.mem_ctrls0.dram.rank0.preBackEnergy            0                       # Energy for precharge background per rank (pJ) (Joule)
system.mem_ctrls0.dram.rank0.actPowerDownEnergy            0                       # Energy for active power-down per rank (pJ) (Joule)
system.mem_ctrls0.dram.rank0.prePowerDownEnergy            0                       # Energy for precharge power-down per rank (pJ) (Joule)
system.mem_ctrls0.dram.rank0.selfRefreshEnergy            0                       # Energy for self refresh per rank (pJ) (Joule)
system.mem_ctrls0.dram.rank0.totalEnergy            0                       # Total energy per rank (pJ) (Joule)
system.mem_ctrls0.dram.rank0.averagePower            0                       # Core power per rank (mW) (Watt)
system.mem_ctrls0.dram.rank0.totalIdleTime            0                       # Total Idle time Per DRAM Rank (Tick)
system.mem_ctrls0.dram.rank0.pwrStateTime::IDLE 10605603877000                       # Time in different power states (Tick)
system.mem_ctrls0.dram.rank0.pwrStateTime::REF 966290380000                       # Time in different power states (Tick)
system.mem_ctrls0.dram.rank0.pwrStateTime::SREF            0                       # Time in different power states (Tick)
system.mem_ctrls0.dram.rank0.pwrStateTime::PRE_PDN            0                       # Time in different power states (Tick)
system.mem_ctrls0.dram.rank0.pwrStateTime::ACT 5496310020000                       # Time in different power states (Tick)
system.mem_ctrls0.dram.rank0.pwrStateTime::ACT_PDN            0                       # Time in different power states (Tick)
system.mem_ctrls0.power_state.pwrStateResidencyTicks::UNDEFINED 17068204277000                       # Cumulative time (in ticks) in various power states (Tick)
system.mem_ctrls1.avgPriority_cpu.inst::samples 107885685.00                       # Average QoS priority value for accepted requests (Count)
system.mem_ctrls1.avgPriority_cpu.data::samples  21685617.00                       # Average QoS priority value for accepted requests (Count)
system.mem_ctrls1.priorityMinLatency     0.000000020000                       # per QoS priority minimum request to response latency (Second)
system.mem_ctrls1.priorityMaxLatency     4.193744781000                       # per QoS priority maximum request to response latency (Second)
system.mem_ctrls1.numReadWriteTurnArounds       168787                       # Number of turnarounds from READ to WRITE (Count)
system.mem_ctrls1.numWriteReadTurnArounds       168787                       # Number of turnarounds from WRITE to READ (Count)
system.mem_ctrls1.numStayReadState          269469084                       # Number of times bus staying in READ state (Count)
system.mem_ctrls1.numStayWriteState           2869491                       # Number of times bus staying in WRITE state (Count)
system.mem_ctrls1.readReqs                  126536398                       # Number of read requests accepted (Count)
system.mem_ctrls1.writeReqs                  12010804                       # Number of write requests accepted (Count)
system.mem_ctrls1.readBursts                126536452                       # Number of controller read bursts, including those serviced by the write queue (Count)
system.mem_ctrls1.writeBursts                12010806                       # Number of controller write bursts, including those merged in the write queue (Count)
system.mem_ctrls1.servicedByWrQ                  3332                       # Number of controller read bursts serviced by the write queue (Count)
system.mem_ctrls1.mergedWrBursts              8972624                       # Number of controller write bursts merged with an existing one (Count)
system.mem_ctrls1.neitherReadNorWriteReqs            0                       # Number of requests that are neither read nor write (Count)
system.mem_ctrls1.avgRdQLen                      1.00                       # Average read queue length when enqueuing ((Count/Tick))
system.mem_ctrls1.avgWrQLen                     24.79                       # Average write queue length when enqueuing ((Count/Tick))
system.mem_ctrls1.numRdRetry                        0                       # Number of times read queue was full causing retry (Count)
system.mem_ctrls1.numWrRetry                        0                       # Number of times write queue was full causing retry (Count)
system.mem_ctrls1.readPktSize::0               629763                       # Read request sizes (log2) (Count)
system.mem_ctrls1.readPktSize::1                 1652                       # Read request sizes (log2) (Count)
system.mem_ctrls1.readPktSize::2                 4300                       # Read request sizes (log2) (Count)
system.mem_ctrls1.readPktSize::3            125900737                       # Read request sizes (log2) (Count)
system.mem_ctrls1.readPktSize::4                    0                       # Read request sizes (log2) (Count)
system.mem_ctrls1.readPktSize::5                    0                       # Read request sizes (log2) (Count)
system.mem_ctrls1.readPktSize::6                    0                       # Read request sizes (log2) (Count)
system.mem_ctrls1.writePktSize::0                 436                       # Write request sizes (log2) (Count)
system.mem_ctrls1.writePktSize::1                 111                       # Write request sizes (log2) (Count)
system.mem_ctrls1.writePktSize::2                1478                       # Write request sizes (log2) (Count)
system.mem_ctrls1.writePktSize::3            12008781                       # Write request sizes (log2) (Count)
system.mem_ctrls1.writePktSize::4                   0                       # Write request sizes (log2) (Count)
system.mem_ctrls1.writePktSize::5                   0                       # Write request sizes (log2) (Count)
system.mem_ctrls1.writePktSize::6                   0                       # Write request sizes (log2) (Count)
system.mem_ctrls1.rdQLenPdf::0              126533066                       # What read queue length does an incoming req see (Count)
system.mem_ctrls1.rdQLenPdf::1                     54                       # What read queue length does an incoming req see (Count)
system.mem_ctrls1.rdQLenPdf::2                      0                       # What read queue length does an incoming req see (Count)
system.mem_ctrls1.rdQLenPdf::3                      0                       # What read queue length does an incoming req see (Count)
system.mem_ctrls1.rdQLenPdf::4                      0                       # What read queue length does an incoming req see (Count)
system.mem_ctrls1.rdQLenPdf::5                      0                       # What read queue length does an incoming req see (Count)
system.mem_ctrls1.rdQLenPdf::6                      0                       # What read queue length does an incoming req see (Count)
system.mem_ctrls1.rdQLenPdf::7                      0                       # What read queue length does an incoming req see (Count)
system.mem_ctrls1.rdQLenPdf::8                      0                       # What read queue length does an incoming req see (Count)
system.mem_ctrls1.rdQLenPdf::9                      0                       # What read queue length does an incoming req see (Count)
system.mem_ctrls1.rdQLenPdf::10                     0                       # What read queue length does an incoming req see (Count)
system.mem_ctrls1.rdQLenPdf::11                     0                       # What read queue length does an incoming req see (Count)
system.mem_ctrls1.rdQLenPdf::12                     0                       # What read queue length does an incoming req see (Count)
system.mem_ctrls1.rdQLenPdf::13                     0                       # What read queue length does an incoming req see (Count)
system.mem_ctrls1.rdQLenPdf::14                     0                       # What read queue length does an incoming req see (Count)
system.mem_ctrls1.rdQLenPdf::15                     0                       # What read queue length does an incoming req see (Count)
system.mem_ctrls1.rdQLenPdf::16                     0                       # What read queue length does an incoming req see (Count)
system.mem_ctrls1.rdQLenPdf::17                     0                       # What read queue length does an incoming req see (Count)
system.mem_ctrls1.rdQLenPdf::18                     0                       # What read queue length does an incoming req see (Count)
system.mem_ctrls1.rdQLenPdf::19                     0                       # What read queue length does an incoming req see (Count)
system.mem_ctrls1.rdQLenPdf::20                     0                       # What read queue length does an incoming req see (Count)
system.mem_ctrls1.rdQLenPdf::21                     0                       # What read queue length does an incoming req see (Count)
system.mem_ctrls1.rdQLenPdf::22                     0                       # What read queue length does an incoming req see (Count)
system.mem_ctrls1.rdQLenPdf::23                     0                       # What read queue length does an incoming req see (Count)
system.mem_ctrls1.rdQLenPdf::24                     0                       # What read queue length does an incoming req see (Count)
system.mem_ctrls1.rdQLenPdf::25                     0                       # What read queue length does an incoming req see (Count)
system.mem_ctrls1.rdQLenPdf::26                     0                       # What read queue length does an incoming req see (Count)
system.mem_ctrls1.rdQLenPdf::27                     0                       # What read queue length does an incoming req see (Count)
system.mem_ctrls1.rdQLenPdf::28                     0                       # What read queue length does an incoming req see (Count)
system.mem_ctrls1.rdQLenPdf::29                     0                       # What read queue length does an incoming req see (Count)
system.mem_ctrls1.rdQLenPdf::30                     0                       # What read queue length does an incoming req see (Count)
system.mem_ctrls1.rdQLenPdf::31                     0                       # What read queue length does an incoming req see (Count)
system.mem_ctrls1.rdQLenPdf::32                     0                       # What read queue length does an incoming req see (Count)
system.mem_ctrls1.rdQLenPdf::33                     0                       # What read queue length does an incoming req see (Count)
system.mem_ctrls1.rdQLenPdf::34                     0                       # What read queue length does an incoming req see (Count)
system.mem_ctrls1.rdQLenPdf::35                     0                       # What read queue length does an incoming req see (Count)
system.mem_ctrls1.rdQLenPdf::36                     0                       # What read queue length does an incoming req see (Count)
system.mem_ctrls1.rdQLenPdf::37                     0                       # What read queue length does an incoming req see (Count)
system.mem_ctrls1.rdQLenPdf::38                     0                       # What read queue length does an incoming req see (Count)
system.mem_ctrls1.rdQLenPdf::39                     0                       # What read queue length does an incoming req see (Count)
system.mem_ctrls1.rdQLenPdf::40                     0                       # What read queue length does an incoming req see (Count)
system.mem_ctrls1.rdQLenPdf::41                     0                       # What read queue length does an incoming req see (Count)
system.mem_ctrls1.rdQLenPdf::42                     0                       # What read queue length does an incoming req see (Count)
system.mem_ctrls1.rdQLenPdf::43                     0                       # What read queue length does an incoming req see (Count)
system.mem_ctrls1.rdQLenPdf::44                     0                       # What read queue length does an incoming req see (Count)
system.mem_ctrls1.rdQLenPdf::45                     0                       # What read queue length does an incoming req see (Count)
system.mem_ctrls1.rdQLenPdf::46                     0                       # What read queue length does an incoming req see (Count)
system.mem_ctrls1.rdQLenPdf::47                     0                       # What read queue length does an incoming req see (Count)
system.mem_ctrls1.rdQLenPdf::48                     0                       # What read queue length does an incoming req see (Count)
system.mem_ctrls1.rdQLenPdf::49                     0                       # What read queue length does an incoming req see (Count)
system.mem_ctrls1.rdQLenPdf::50                     0                       # What read queue length does an incoming req see (Count)
system.mem_ctrls1.rdQLenPdf::51                     0                       # What read queue length does an incoming req see (Count)
system.mem_ctrls1.rdQLenPdf::52                     0                       # What read queue length does an incoming req see (Count)
system.mem_ctrls1.rdQLenPdf::53                     0                       # What read queue length does an incoming req see (Count)
system.mem_ctrls1.rdQLenPdf::54                     0                       # What read queue length does an incoming req see (Count)
system.mem_ctrls1.rdQLenPdf::55                     0                       # What read queue length does an incoming req see (Count)
system.mem_ctrls1.rdQLenPdf::56                     0                       # What read queue length does an incoming req see (Count)
system.mem_ctrls1.rdQLenPdf::57                     0                       # What read queue length does an incoming req see (Count)
system.mem_ctrls1.rdQLenPdf::58                     0                       # What read queue length does an incoming req see (Count)
system.mem_ctrls1.rdQLenPdf::59                     0                       # What read queue length does an incoming req see (Count)
system.mem_ctrls1.rdQLenPdf::60                     0                       # What read queue length does an incoming req see (Count)
system.mem_ctrls1.rdQLenPdf::61                     0                       # What read queue length does an incoming req see (Count)
system.mem_ctrls1.rdQLenPdf::62                     0                       # What read queue length does an incoming req see (Count)
system.mem_ctrls1.rdQLenPdf::63                     0                       # What read queue length does an incoming req see (Count)
system.mem_ctrls1.wrQLenPdf::0                      1                       # What write queue length does an incoming req see (Count)
system.mem_ctrls1.wrQLenPdf::1                      1                       # What write queue length does an incoming req see (Count)
system.mem_ctrls1.wrQLenPdf::2                      1                       # What write queue length does an incoming req see (Count)
system.mem_ctrls1.wrQLenPdf::3                      1                       # What write queue length does an incoming req see (Count)
system.mem_ctrls1.wrQLenPdf::4                      1                       # What write queue length does an incoming req see (Count)
system.mem_ctrls1.wrQLenPdf::5                      1                       # What write queue length does an incoming req see (Count)
system.mem_ctrls1.wrQLenPdf::6                      1                       # What write queue length does an incoming req see (Count)
system.mem_ctrls1.wrQLenPdf::7                      1                       # What write queue length does an incoming req see (Count)
system.mem_ctrls1.wrQLenPdf::8                      1                       # What write queue length does an incoming req see (Count)
system.mem_ctrls1.wrQLenPdf::9                      1                       # What write queue length does an incoming req see (Count)
system.mem_ctrls1.wrQLenPdf::10                     1                       # What write queue length does an incoming req see (Count)
system.mem_ctrls1.wrQLenPdf::11                     1                       # What write queue length does an incoming req see (Count)
system.mem_ctrls1.wrQLenPdf::12                     1                       # What write queue length does an incoming req see (Count)
system.mem_ctrls1.wrQLenPdf::13                     1                       # What write queue length does an incoming req see (Count)
system.mem_ctrls1.wrQLenPdf::14                     1                       # What write queue length does an incoming req see (Count)
system.mem_ctrls1.wrQLenPdf::15                168787                       # What write queue length does an incoming req see (Count)
system.mem_ctrls1.wrQLenPdf::16                168788                       # What write queue length does an incoming req see (Count)
system.mem_ctrls1.wrQLenPdf::17                168787                       # What write queue length does an incoming req see (Count)
system.mem_ctrls1.wrQLenPdf::18                168787                       # What write queue length does an incoming req see (Count)
system.mem_ctrls1.wrQLenPdf::19                168787                       # What write queue length does an incoming req see (Count)
system.mem_ctrls1.wrQLenPdf::20                168787                       # What write queue length does an incoming req see (Count)
system.mem_ctrls1.wrQLenPdf::21                168787                       # What write queue length does an incoming req see (Count)
system.mem_ctrls1.wrQLenPdf::22                168787                       # What write queue length does an incoming req see (Count)
system.mem_ctrls1.wrQLenPdf::23                168787                       # What write queue length does an incoming req see (Count)
system.mem_ctrls1.wrQLenPdf::24                168787                       # What write queue length does an incoming req see (Count)
system.mem_ctrls1.wrQLenPdf::25                168787                       # What write queue length does an incoming req see (Count)
system.mem_ctrls1.wrQLenPdf::26                168787                       # What write queue length does an incoming req see (Count)
system.mem_ctrls1.wrQLenPdf::27                168787                       # What write queue length does an incoming req see (Count)
system.mem_ctrls1.wrQLenPdf::28                168787                       # What write queue length does an incoming req see (Count)
system.mem_ctrls1.wrQLenPdf::29                168787                       # What write queue length does an incoming req see (Count)
system.mem_ctrls1.wrQLenPdf::30                168787                       # What write queue length does an incoming req see (Count)
system.mem_ctrls1.wrQLenPdf::31                168787                       # What write queue length does an incoming req see (Count)
system.mem_ctrls1.wrQLenPdf::32                168787                       # What write queue length does an incoming req see (Count)
system.mem_ctrls1.wrQLenPdf::33                     0                       # What write queue length does an incoming req see (Count)
system.mem_ctrls1.wrQLenPdf::34                     0                       # What write queue length does an incoming req see (Count)
system.mem_ctrls1.wrQLenPdf::35                     0                       # What write queue length does an incoming req see (Count)
system.mem_ctrls1.wrQLenPdf::36                     0                       # What write queue length does an incoming req see (Count)
system.mem_ctrls1.wrQLenPdf::37                     0                       # What write queue length does an incoming req see (Count)
system.mem_ctrls1.wrQLenPdf::38                     0                       # What write queue length does an incoming req see (Count)
system.mem_ctrls1.wrQLenPdf::39                     0                       # What write queue length does an incoming req see (Count)
system.mem_ctrls1.wrQLenPdf::40                     0                       # What write queue length does an incoming req see (Count)
system.mem_ctrls1.wrQLenPdf::41                     0                       # What write queue length does an incoming req see (Count)
system.mem_ctrls1.wrQLenPdf::42                     0                       # What write queue length does an incoming req see (Count)
system.mem_ctrls1.wrQLenPdf::43                     0                       # What write queue length does an incoming req see (Count)
system.mem_ctrls1.wrQLenPdf::44                     0                       # What write queue length does an incoming req see (Count)
system.mem_ctrls1.wrQLenPdf::45                     0                       # What write queue length does an incoming req see (Count)
system.mem_ctrls1.wrQLenPdf::46                     0                       # What write queue length does an incoming req see (Count)
system.mem_ctrls1.wrQLenPdf::47                     0                       # What write queue length does an incoming req see (Count)
system.mem_ctrls1.wrQLenPdf::48                     0                       # What write queue length does an incoming req see (Count)
system.mem_ctrls1.wrQLenPdf::49                     0                       # What write queue length does an incoming req see (Count)
system.mem_ctrls1.wrQLenPdf::50                     0                       # What write queue length does an incoming req see (Count)
system.mem_ctrls1.wrQLenPdf::51                     0                       # What write queue length does an incoming req see (Count)
system.mem_ctrls1.wrQLenPdf::52                     0                       # What write queue length does an incoming req see (Count)
system.mem_ctrls1.wrQLenPdf::53                     0                       # What write queue length does an incoming req see (Count)
system.mem_ctrls1.wrQLenPdf::54                     0                       # What write queue length does an incoming req see (Count)
system.mem_ctrls1.wrQLenPdf::55                     0                       # What write queue length does an incoming req see (Count)
system.mem_ctrls1.wrQLenPdf::56                     0                       # What write queue length does an incoming req see (Count)
system.mem_ctrls1.wrQLenPdf::57                     0                       # What write queue length does an incoming req see (Count)
system.mem_ctrls1.wrQLenPdf::58                     0                       # What write queue length does an incoming req see (Count)
system.mem_ctrls1.wrQLenPdf::59                     0                       # What write queue length does an incoming req see (Count)
system.mem_ctrls1.wrQLenPdf::60                     0                       # What write queue length does an incoming req see (Count)
system.mem_ctrls1.wrQLenPdf::61                     0                       # What write queue length does an incoming req see (Count)
system.mem_ctrls1.wrQLenPdf::62                     0                       # What write queue length does an incoming req see (Count)
system.mem_ctrls1.wrQLenPdf::63                     0                       # What write queue length does an incoming req see (Count)
system.mem_ctrls1.rdPerTurnAround::samples       168787                       # Reads before turning the bus around for writes (Count)
system.mem_ctrls1.rdPerTurnAround::mean    749.661022                       # Reads before turning the bus around for writes (Count)
system.mem_ctrls1.rdPerTurnAround::stdev 52415.909814                       # Reads before turning the bus around for writes (Count)
system.mem_ctrls1.rdPerTurnAround::0-524287       168786    100.00%    100.00% # Reads before turning the bus around for writes (Count)
system.mem_ctrls1.rdPerTurnAround::2.14958e+07-2.20201e+07            1      0.00%    100.00% # Reads before turning the bus around for writes (Count)
system.mem_ctrls1.rdPerTurnAround::total       168787                       # Reads before turning the bus around for writes (Count)
system.mem_ctrls1.wrPerTurnAround::samples       168787                       # Writes before turning the bus around for reads (Count)
system.mem_ctrls1.wrPerTurnAround::mean     17.999994                       # Writes before turning the bus around for reads (Count)
system.mem_ctrls1.wrPerTurnAround::gmean    17.999994                       # Writes before turning the bus around for reads (Count)
system.mem_ctrls1.wrPerTurnAround::stdev     0.002434                       # Writes before turning the bus around for reads (Count)
system.mem_ctrls1.wrPerTurnAround::17               1      0.00%      0.00% # Writes before turning the bus around for reads (Count)
system.mem_ctrls1.wrPerTurnAround::18          168786    100.00%    100.00% # Writes before turning the bus around for reads (Count)
system.mem_ctrls1.wrPerTurnAround::total       168787                       # Writes before turning the bus around for reads (Count)
system.mem_ctrls1.bytesReadWrQ                 106624                       # Total number of bytes read from write queue (Byte)
system.mem_ctrls1.bytesReadSys             1007856036                       # Total read bytes from the system interface side (Byte)
system.mem_ctrls1.bytesWrittenSys            96076782                       # Total written bytes from the system interface side (Byte)
[...]
system.mem_ctrls1.dram.bytesWritten::total     96076782                       # Number of bytes written to this memory (Byte)
system.mem_ctrls1.dram.numReads::cpu.inst    107885685                       # Number of read requests responded to by this memory (Count)
system.mem_ctrls1.dram.numReads::cpu.data     18650713                       # Number of read requests responded to by this memory (Count)
system.mem_ctrls1.dram.numReads::total      126536398                       # Number of read requests responded to by this memory (Count)
system.mem_ctrls1.dram.numWrites::cpu.data     12010804                       # Number of write requests responded to by this memory (Count)
system.mem_ctrls1.dram.numWrites::total      12010804                       # Number of write requests responded to by this memory (Count)
system.mem_ctrls1.dram.bwRead::cpu.inst      50566859                       # Total read bandwidth from this memory ((Byte/Second))
system.mem_ctrls1.dram.bwRead::cpu.data       8481886                       # Total read bandwidth from this memory ((Byte/Second))
system.mem_ctrls1.dram.bwRead::total         59048745                       # Total read bandwidth from this memory ((Byte/Second))
system.mem_ctrls1.dram.bwInstRead::cpu.inst     50566859                       # Instruction read bandwidth from this memory ((Byte/Second))
system.mem_ctrls1.dram.bwInstRead::total     50566859                       # Instruction read bandwidth from this memory ((Byte/Second))
system.mem_ctrls1.dram.bwWrite::cpu.data      5628992                       # Write bandwidth from this memory ((Byte/Second))
system.mem_ctrls1.dram.bwWrite::total         5628992                       # Write bandwidth from this memory ((Byte/Second))
system.mem_ctrls1.dram.bwTotal::cpu.inst     50566859                       # Total bandwidth to/from this memory ((Byte/Second))
system.mem_ctrls1.dram.bwTotal::cpu.data     14110877                       # Total bandwidth to/from this memory ((Byte/Second))
system.mem_ctrls1.dram.bwTotal::total        64677736                       # Total bandwidth to/from this memory ((Byte/Second))
system.mem_ctrls1.dram.readBursts           126533120                       # Number of DRAM read bursts (Count)
system.mem_ctrls1.dram.writeBursts            3038165                       # Number of DRAM write bursts (Count)
system.mem_ctrls1.dram.perBankRdBursts::0      1103354                       # Per bank write bursts (Count)
system.mem_ctrls1.dram.perBankRdBursts::1      1104872                       # Per bank write bursts (Count)
system.mem_ctrls1.dram.perBankRdBursts::2     20106578                       # Per bank write bursts (Count)
system.mem_ctrls1.dram.perBankRdBursts::3     86102735                       # Per bank write bursts (Count)
system.mem_ctrls1.dram.perBankRdBursts::4      1104015                       # Per bank write bursts (Count)
system.mem_ctrls1.dram.perBankRdBursts::5      1107377                       # Per bank write bursts (Count)
system.mem_ctrls1.dram.perBankRdBursts::6      1120728                       # Per bank write bursts (Count)
system.mem_ctrls1.dram.perBankRdBursts::7      1107510                       # Per bank write bursts (Count)
system.mem_ctrls1.dram.perBankRdBursts::8      1113452                       # Per bank write bursts (Count)
system.mem_ctrls1.dram.perBankRdBursts::9      1104265                       # Per bank write bursts (Count)
system.mem_ctrls1.dram.perBankRdBursts::10      1104891                       # Per bank write bursts (Count)
system.mem_ctrls1.dram.perBankRdBursts::11      1110638                       # Per bank write bursts (Count)
system.mem_ctrls1.dram.perBankRdBursts::12      1155087                       # Per bank write bursts (Count)
system.mem_ctrls1.dram.perBankRdBursts::13      1107109                       # Per bank write bursts (Count)
system.mem_ctrls1.dram.perBankRdBursts::14      1110983                       # Per bank write bursts (Count)
system.mem_ctrls1.dram.perBankRdBursts::15      5869526                       # Per bank write bursts (Count)
system.mem_ctrls1.dram.perBankWrBursts::0       189765                       # Per bank write bursts (Count)
system.mem_ctrls1.dram.perBankWrBursts::1       189745                       # Per bank write bursts (Count)
system.mem_ctrls1.dram.perBankWrBursts::2       189744                       # Per bank write bursts (Count)
system.mem_ctrls1.dram.perBankWrBursts::3       189779                       # Per bank write bursts (Count)
system.mem_ctrls1.dram.perBankWrBursts::4       189827                       # Per bank write bursts (Count)
system.mem_ctrls1.dram.perBankWrBursts::5       189765                       # Per bank write bursts (Count)
system.mem_ctrls1.dram.perBankWrBursts::6       189785                       # Per bank write bursts (Count)
system.mem_ctrls1.dram.perBankWrBursts::7       189672                       # Per bank write bursts (Count)
system.mem_ctrls1.dram.perBankWrBursts::8       190069                       # Per bank write bursts (Count)
system.mem_ctrls1.dram.perBankWrBursts::9       190089                       # Per bank write bursts (Count)
system.mem_ctrls1.dram.perBankWrBursts::10       189991                       # Per bank write bursts (Count)
system.mem_ctrls1.dram.perBankWrBursts::11       189976                       # Per bank write bursts (Count)
system.mem_ctrls1.dram.perBankWrBursts::12       189989                       # Per bank write bursts (Count)
system.mem_ctrls1.dram.perBankWrBursts::13       189972                       # Per bank write bursts (Count)
system.mem_ctrls1.dram.perBankWrBursts::14       190071                       # Per bank write bursts (Count)
system.mem_ctrls1.dram.perBankWrBursts::15       189926                       # Per bank write bursts (Count)
system.mem_ctrls1.dram.totQLat           1956927147000                       # Total ticks spent queuing (Tick)
system.mem_ctrls1.dram.totBusLat         253066240000                       # Total ticks spent in databus transfers (Tick)
system.mem_ctrls1.dram.totMemAccLat      4487589547000                       # Total ticks spent from burst creation until serviced by the DRAM (Tick)
system.mem_ctrls1.dram.avgQLat               15465.73                       # Average queueing delay per DRAM burst ((Tick/Count))
system.mem_ctrls1.dram.avgBusLat              2000.00                       # Average bus latency per DRAM burst ((Tick/Count))
system.mem_ctrls1.dram.avgMemAccLat          35465.73                       # Average memory access latency per DRAM burst ((Tick/Count))
system.mem_ctrls1.dram.readRowHits               4951                       # Number of row buffer hits during reads (Count)
system.mem_ctrls1.dram.writeRowHits           2606529                       # Number of row buffer hits during writes (Count)
system.mem_ctrls1.dram.readRowHitRate            0.00                       # Row buffer hit rate for reads (Ratio)
system.mem_ctrls1.dram.writeRowHitRate          85.79                       # Row buffer hit rate for writes (Ratio)
system.mem_ctrls1.dram.bytesPerActivate::samples    126959805                       # Bytes accessed per row activation (Byte)
system.mem_ctrls1.dram.bytesPerActivate::mean    32.658219                       # Bytes accessed per row activation (Byte)
system.mem_ctrls1.dram.bytesPerActivate::gmean    32.198648                       # Bytes accessed per row activation (Byte)
system.mem_ctrls1.dram.bytesPerActivate::stdev    12.321540                       # Bytes accessed per row activation (Byte)
system.mem_ctrls1.dram.bytesPerActivate::32-63    126558513     99.68%     99.68% # Bytes accessed per row activation (Byte)
system.mem_ctrls1.dram.bytesPerActivate::64-95        10303      0.01%     99.69% # Bytes accessed per row activation (Byte)
system.mem_ctrls1.dram.bytesPerActivate::96-127        17099      0.01%     99.71% # Bytes accessed per row activation (Byte)
system.mem_ctrls1.dram.bytesPerActivate::128-159        18735      0.01%     99.72% # Bytes accessed per row activation (Byte)
system.mem_ctrls1.dram.bytesPerActivate::160-191        50869      0.04%     99.76% # Bytes accessed per row activation (Byte)
system.mem_ctrls1.dram.bytesPerActivate::192-223         5280      0.00%     99.76% # Bytes accessed per row activation (Byte)
system.mem_ctrls1.dram.bytesPerActivate::224-255        26890      0.02%     99.79% # Bytes accessed per row activation (Byte)
system.mem_ctrls1.dram.bytesPerActivate::256-287       137720      0.11%     99.89% # Bytes accessed per row activation (Byte)
system.mem_ctrls1.dram.bytesPerActivate::288-319        54117      0.04%     99.94% # Bytes accessed per row activation (Byte)
system.mem_ctrls1.dram.bytesPerActivate::320-351        80222      0.06%    100.00% # Bytes accessed per row activation (Byte)
system.mem_ctrls1.dram.bytesPerActivate::352-383           52      0.00%    100.00% # Bytes accessed per row activation (Byte)
system.mem_ctrls1.dram.bytesPerActivate::384-415            2      0.00%    100.00% # Bytes accessed per row activation (Byte)
system.mem_ctrls1.dram.bytesPerActivate::480-511            3      0.00%    100.00% # Bytes accessed per row activation (Byte)
system.mem_ctrls1.dram.bytesPerActivate::total    126959805                       # Bytes accessed per row activation (Byte)
system.mem_ctrls1.dram.bytesRead           4049059840                       # Total bytes read (Byte)
system.mem_ctrls1.dram.bytesWritten          97221280                       # Total bytes written (Byte)
system.mem_ctrls1.dram.avgRdBW             237.228227                       # Average DRAM read bandwidth in MiBytes/s ((Byte/Second))
system.mem_ctrls1.dram.avgWrBW               5.696046                       # Average DRAM write bandwidth in MiBytes/s ((Byte/Second))
system.mem_ctrls1.dram.peakBW                16000.00                       # Theoretical peak bandwidth in MiByte/s ((Byte/Second))
system.mem_ctrls1.dram.busUtil                   1.52                       # Data bus utilization in percentage (Ratio)
system.mem_ctrls1.dram.busUtilRead               1.48                       # Data bus utilization in percentage for reads (Ratio)
system.mem_ctrls1.dram.busUtilWrite              0.04                       # Data bus utilization in percentage for writes (Ratio)
system.mem_ctrls1.dram.pageHitRate               2.02                       # Row buffer hit rate, read and write combined (Ratio)
system.mem_ctrls1.dram.power_state.pwrStateResidencyTicks::UNDEFINED 17068204277000                       # Cumulative time (in ticks) in various power states (Tick)
system.mem_ctrls1.dram.rank0.actEnergy              0                       # Energy for activate commands per rank (pJ) (Joule)
system.mem_ctrls1.dram.rank0.preEnergy              0                       # Energy for precharge commands per rank (pJ) (Joule)
system.mem_ctrls1.dram.rank0.readEnergy             0                       # Energy for read commands per rank (pJ) (Joule)
system.mem_ctrls1.dram.rank0.writeEnergy            0                       # Energy for write commands per rank (pJ) (Joule)
system.mem_ctrls1.dram.rank0.refreshEnergy            0                       # Energy for refresh commands per rank (pJ) (Joule)
system.mem_ctrls1.dram.rank0.actBackEnergy            0                       # Energy for active background per rank (pJ) (Joule)
system.mem_ctrls1.dram.rank0.preBackEnergy            0                       # Energy for precharge background per rank (pJ) (Joule)
system.mem_ctrls1.dram.rank0.actPowerDownEnergy            0                       # Energy for active power-down per rank (pJ) (Joule)
system.mem_ctrls1.dram.rank0.prePowerDownEnergy            0                       # Energy for precharge power-down per rank (pJ) (Joule)
system.mem_ctrls1.dram.rank0.selfRefreshEnergy            0                       # Energy for self refresh per rank (pJ) (Joule)
system.mem_ctrls1.dram.rank0.totalEnergy            0                       # Total energy per rank (pJ) (Joule)
system.mem_ctrls1.dram.rank0.averagePower            0                       # Core power per rank (mW) (Watt)
system.mem_ctrls1.dram.rank0.totalIdleTime            0                       # Total Idle time Per DRAM Rank (Tick)
system.mem_ctrls1.dram.rank0.pwrStateTime::IDLE 10557345225000                       # Time in different power states (Tick)
system.mem_ctrls1.dram.rank0.pwrStateTime::REF 966290380000                       # Time in different power states (Tick)
system.mem_ctrls1.dram.rank0.pwrStateTime::SREF            0                       # Time in different power states (Tick)
system.mem_ctrls1.dram.rank0.pwrStateTime::PRE_PDN            0                       # Time in different power states (Tick)
system.mem_ctrls1.dram.rank0.pwrStateTime::ACT 5544568672000                       # Time in different power states (Tick)
system.mem_ctrls1.dram.rank0.pwrStateTime::ACT_PDN            0                       # Time in different power states (Tick)
system.mem_ctrls1.power_state.pwrStateResidencyTicks::UNDEFINED 17068204277000                       # Cumulative time (in ticks) in various power states (Tick)
system.membus.transDist::ReadReq            251866551                       # Transaction distribution (Count)
system.membus.transDist::ReadResp           251866551                       # Transaction distribution (Count)
system.membus.transDist::WriteReq            24020846                       # Transaction distribution (Count)
system.membus.transDist::WriteResp           24020846                       # Transaction distribution (Count)
system.membus.transDist::SoftPFReq            1249990                       # Transaction distribution (Count)
system.membus.transDist::SoftPFResp           1249990                       # Transaction distribution (Count)
system.membus.pktCount_system.cpu.icache_port::system.mem_ctrls0.port    203852498                       # Packet count per connected requestor and responder (Count)
system.membus.pktCount_system.cpu.icache_port::system.mem_ctrls1.port    215771370                       # Packet count per connected requestor and responder (Count)
system.membus.pktCount_system.cpu.icache_port::total    419623868                       # Packet count per connected requestor and responder (Count)
system.membus.pktCount_system.cpu.dcache_port::system.mem_ctrls0.port     73327872                       # Packet count per connected requestor and responder (Count)
system.membus.pktCount_system.cpu.dcache_port::system.mem_ctrls1.port     61323034                       # Packet count per connected requestor and responder (Count)
system.membus.pktCount_system.cpu.dcache_port::total    134650906                       # Packet count per connected requestor and responder (Count)
system.membus.pktCount::total               554274774                       # Packet count per connected requestor and responder (Count)
system.membus.pktSize_system.cpu.icache_port::system.mem_ctrls0.port    815409992                       # Cumulative packet size per connected requestor and responder (Byte)
system.membus.pktSize_system.cpu.icache_port::system.mem_ctrls1.port    863085480                       # Cumulative packet size per connected requestor and responder (Byte)
system.membus.pktSize_system.cpu.icache_port::total   1678495472                       # Cumulative packet size per connected requestor and responder (Byte)
system.membus.pktSize_system.cpu.dcache_port::system.mem_ctrls0.port    288863980                       # Cumulative packet size per connected requestor and responder (Byte)
system.membus.pktSize_system.cpu.dcache_port::system.mem_ctrls1.port    240847338                       # Cumulative packet size per connected requestor and responder (Byte)
system.membus.pktSize_system.cpu.dcache_port::total    529711318                       # Cumulative packet size per connected requestor and responder (Byte)
system.membus.pktSize::total               2208206790                       # Cumulative packet size per connected requestor and responder (Byte)
system.membus.snoops                                0                       # Total snoops (Count)
system.membus.snoopTraffic                          0                       # Total snoop traffic (Byte)
system.membus.snoopFanout::samples          277137387                       # Request fanout histogram (Count)
system.membus.snoopFanout::mean                     0                       # Request fanout histogram (Count)
system.membus.snoopFanout::stdev                    0                       # Request fanout histogram (Count)
system.membus.snoopFanout::underflows               0      0.00%      0.00% # Request fanout histogram (Count)
system.membus.snoopFanout::0                277137387    100.00%    100.00% # Request fanout histogram (Count)
system.membus.snoopFanout::1                        0      0.00%    100.00% # Request fanout histogram (Count)
system.membus.snoopFanout::overflows                0      0.00%    100.00% # Request fanout histogram (Count)
system.membus.snoopFanout::min_value                0                       # Request fanout histogram (Count)
system.membus.snoopFanout::max_value                0                       # Request fanout histogram (Count)
system.membus.snoopFanout::total            277137387                       # Request fanout histogram (Count)
system.membus.power_state.pwrStateResidencyTicks::UNDEFINED 17068204277000                       # Cumulative time (in ticks) in various power states (Tick)
system.membus.reqLayer2.occupancy        150600227000                       # Layer occupancy (ticks) (Tick)
system.membus.reqLayer2.utilization               0.0                       # Layer utilization (Ratio)
system.membus.reqLayer3.occupancy        150558006000                       # Layer occupancy (ticks) (Tick)
system.membus.reqLayer3.utilization               0.0                       # Layer utilization (Ratio)
system.membus.respLayer1.occupancy       419623868000                       # Layer occupancy (ticks) (Tick)
system.membus.respLayer1.utilization              0.0                       # Layer utilization (Ratio)
system.membus.respLayer2.occupancy       110630060000                       # Layer occupancy (ticks) (Tick)
system.membus.respLayer2.utilization              0.0                       # Layer utilization (Ratio)
system.membus.snoop_filter.totRequests              0                       # Total number of requests made to the snoop filter. (Count)
system.membus.snoop_filter.hitSingleRequests            0                       # Number of requests hitting in the snoop filter with a single holder of the requested data. (Count)
system.membus.snoop_filter.hitMultiRequests            0                       # Number of requests hitting in the snoop filter with multiple (>1) holders of the requested data. (Count)
system.membus.snoop_filter.totSnoops                0                       # Total number of snoops made to the snoop filter. (Count)
system.membus.snoop_filter.hitSingleSnoops            0                       # Number of snoops hitting in the snoop filter with a single holder of the requested data. (Count)
system.membus.snoop_filter.hitMultiSnoops            0                       # Number of snoops hitting in the snoop filter with multiple (>1) holders of the requested data. (Count)
system.voltage_domain.voltage                       1                       # Voltage in Volts (Volt)
system.workload.inst.arm                            0                       # number of arm instructions executed (Count)
system.workload.inst.quiesce                        0                       # number of quiesce instructions executed (Count)

---------- End Simulation Statistics   ----------
