
---------- Begin Simulation Statistics ----------
simSeconds                                   0.066867                       # Number of seconds simulated (Second)
simTicks                                  66866901500                       # Number of ticks simulated (Tick)
finalTick                                 66866901500                       # Number of ticks from beginning of simulation (restored from checkpoints and never reset) (Tick)
simFreq                                  1000000000000                       # The number of ticks per simulated second ((Tick/Second))
hostSeconds                                   1818.31                       # Real time elapsed on the host (Second)
hostTickRate                                 36774230                       # The number of ticks simulated per host second (ticks/s) ((Tick/Second))
hostMemory                                    7906512                       # Number of bytes of host memory used (Byte)
simInsts                                    124545673                       # Number of instructions simulated (Count)
simOps                                      222430822                       # Number of ops (including micro ops) simulated (Count)
hostInstRate                                    68495                       # Simulator instruction rate (inst/s) ((Count/Second))
hostOpRate                                     122328                       # Simulator op (including micro ops) rate (op/s) ((Count/Second))
system.clk_domain.clock                          1000                       # Clock period in ticks (Tick)
system.cpu0.numCycles                       267467607                       # Number of cpu cycles simulated (Cycle)
system.cpu0.numWorkItemsStarted                     0                       # Number of work items this cpu started (Count)
system.cpu0.numWorkItemsCompleted                   0                       # Number of work items this cpu completed (Count)
system.cpu0.instsAdded                       76972934                       # Number of instructions added to the IQ (excludes non-spec) (Count)
system.cpu0.nonSpecInstsAdded                    1334                       # Number of non-speculative instructions added to the IQ (Count)
system.cpu0.instsIssued                      76956178                       # Number of instructions issued (Count)
system.cpu0.squashedInstsIssued                  1991                       # Number of squashed instructions issued (Count)
system.cpu0.squashedInstsExamined            24507632                       # Number of squashed instructions iterated over during squash; mainly for profiling (Count)
system.cpu0.squashedOperandsExamined           793076                       # Number of squashed operands that are examined and possibly removed from graph (Count)
system.cpu0.squashedNonSpecRemoved                430                       # Number of squashed non-spec instructions that were removed (Count)
system.cpu0.numIssuedDist::samples          266956594                       # Number of insts issued each cycle (Count)
system.cpu0.numIssuedDist::mean              0.288272                       # Number of insts issued each cycle (Count)
system.cpu0.numIssuedDist::stdev             1.148402                       # Number of insts issued each cycle (Count)
system.cpu0.numIssuedDist::underflows               0      0.00%      0.00% # Number of insts issued each cycle (Count)
system.cpu0.numIssuedDist::0                244580493     91.62%     91.62% # Number of insts issued each cycle (Count)
system.cpu0.numIssuedDist::1                  5914204      2.22%     93.83% # Number of insts issued each cycle (Count)
system.cpu0.numIssuedDist::2                  4059689      1.52%     95.35% # Number of insts issued each cycle (Count)
system.cpu0.numIssuedDist::3                  2406889      0.90%     96.26% # Number of insts issued each cycle (Count)
system.cpu0.numIssuedDist::4                  3081859      1.15%     97.41% # Number of insts issued each cycle (Count)
system.cpu0.numIssuedDist::5                  2285228      0.86%     98.27% # Number of insts issued each cycle (Count)
system.cpu0.numIssuedDist::6                  1977035      0.74%     99.01% # Number of insts issued each cycle (Count)
system.cpu0.numIssuedDist::7                  1123433      0.42%     99.43% # Number of insts issued each cycle (Count)
system.cpu0.numIssuedDist::8                  1527764      0.57%    100.00% # Number of insts issued each cycle (Count)
system.cpu0.numIssuedDist::overflows                0      0.00%    100.00% # Number of insts issued each cycle (Count)
system.cpu0.numIssuedDist::min_value                0                       # Number of insts issued each cycle (Count)
system.cpu0.numIssuedDist::max_value                8                       # Number of insts issued each cycle (Count)
system.cpu0.numIssuedDist::total            266956594                       # Number of insts issued each cycle (Count)
system.cpu0.statFuBusy::No_OpClass                  0      0.00%      0.00% # attempts to use FU when none available (Count)
system.cpu0.statFuBusy::IntAlu                  46316      1.09%      1.09% # attempts to use FU when none available (Count)
system.cpu0.statFuBusy::IntMult                     0      0.00%      1.09% # attempts to use FU when none available (Count)
system.cpu0.statFuBusy::IntDiv                      0      0.00%      1.09% # attempts to use FU when none available (Count)
system.cpu0.statFuBusy::FloatAdd                    0      0.00%      1.09% # attempts to use FU when none available (Count)
system.cpu0.statFuBusy::FloatCmp                    0      0.00%      1.09% # attempts to use FU when none available (Count)
system.cpu0.statFuBusy::FloatCvt                    0      0.00%      1.09% # attempts to use FU when none available (Count)
system.cpu0.statFuBusy::FloatMult                   0      0.00%      1.09% # attempts to use FU when none available (Count)
system.cpu0.statFuBusy::FloatMultAcc                0      0.00%      1.09% # attempts to use FU when none available (Count)
system.cpu0.statFuBusy::FloatDiv                    0      0.00%      1.09% # attempts to use FU when none available (Count)
system.cpu0.statFuBusy::FloatMisc                   0      0.00%      1.09% # attempts to use FU when none available (Count)
system.cpu0.statFuBusy::FloatSqrt                   0      0.00%      1.09% # attempts to use FU when none available (Count)
system.cpu0.statFuBusy::SimdAdd                     3      0.00%      1.09% # attempts to use FU when none available (Count)
system.cpu0.statFuBusy::SimdAddAcc                  0      0.00%      1.09% # attempts to use FU when none available (Count)
system.cpu0.statFuBusy::SimdAlu                   111      0.00%      1.10% # attempts to use FU when none available (Count)
system.cpu0.statFuBusy::SimdCmp                     0      0.00%      1.10% # attempts to use FU when none available (Count)
system.cpu0.statFuBusy::SimdCvt                    83      0.00%      1.10% # attempts to use FU when none available (Count)
system.cpu0.statFuBusy::SimdMisc                   50      0.00%      1.10% # attempts to use FU when none available (Count)
system.cpu0.statFuBusy::SimdMult                    0      0.00%      1.10% # attempts to use FU when none available (Count)
system.cpu0.statFuBusy::SimdMultAcc                 0      0.00%      1.10% # attempts to use FU when none available (Count)
system.cpu0.statFuBusy::SimdShift                   7      0.00%      1.10% # attempts to use FU when none available (Count)
system.cpu0.statFuBusy::SimdShiftAcc                0      0.00%      1.10% # attempts to use FU when none available (Count)
system.cpu0.statFuBusy::SimdDiv                     0      0.00%      1.10% # attempts to use FU when none available (Count)
system.cpu0.statFuBusy::SimdSqrt                    0      0.00%      1.10% # attempts to use FU when none available (Count)
system.cpu0.statFuBusy::SimdFloatAdd           678835     16.04%     17.14% # attempts to use FU when none available (Count)
system.cpu0.statFuBusy::SimdFloatAlu                0      0.00%     17.14% # attempts to use FU when none available (Count)
system.cpu0.statFuBusy::SimdFloatCmp                0      0.00%     17.14% # attempts to use FU when none available (Count)
system.cpu0.statFuBusy::SimdFloatCvt                1      0.00%     17.14% # attempts to use FU when none available (Count)
system.cpu0.statFuBusy::SimdFloatDiv                0      0.00%     17.14% # attempts to use FU when none available (Count)
system.cpu0.statFuBusy::SimdFloatMisc               0      0.00%     17.14% # attempts to use FU when none available (Count)
system.cpu0.statFuBusy::SimdFloatMult               0      0.00%     17.14% # attempts to use FU when none available (Count)
system.cpu0.statFuBusy::SimdFloatMultAcc            0      0.00%     17.14% # attempts to use FU when none available (Count)
system.cpu0.statFuBusy::SimdFloatSqrt               0      0.00%     17.14% # attempts to use FU when none available (Count)
system.cpu0.statFuBusy::SimdReduceAdd               0      0.00%     17.14% # attempts to use FU when none available (Count)
system.cpu0.statFuBusy::SimdReduceAlu               0      0.00%     17.14% # attempts to use FU when none available (Count)
system.cpu0.statFuBusy::SimdReduceCmp               0      0.00%     17.14% # attempts to use FU when none available (Count)
system.cpu0.statFuBusy::SimdFloatReduceAdd            0      0.00%     17.14% # attempts to use FU when none available (Count)
system.cpu0.statFuBusy::SimdFloatReduceCmp            0      0.00%     17.14% # attempts to use FU when none available (Count)
system.cpu0.statFuBusy::SimdAes                     0      0.00%     17.14% # attempts to use FU when none available (Count)
system.cpu0.statFuBusy::SimdAesMix                  0      0.00%     17.14% # attempts to use FU when none available (Count)
system.cpu0.statFuBusy::SimdSha1Hash                0      0.00%     17.14% # attempts to use FU when none available (Count)
system.cpu0.statFuBusy::SimdSha1Hash2               0      0.00%     17.14% # attempts to use FU when none available (Count)
system.cpu0.statFuBusy::SimdSha256Hash              0      0.00%     17.14% # attempts to use FU when none available (Count)
system.cpu0.statFuBusy::SimdSha256Hash2             0      0.00%     17.14% # attempts to use FU when none available (Count)
system.cpu0.statFuBusy::SimdShaSigma2               0      0.00%     17.14% # attempts to use FU when none available (Count)
system.cpu0.statFuBusy::SimdShaSigma3               0      0.00%     17.14% # attempts to use FU when none available (Count)
system.cpu0.statFuBusy::SimdPredAlu                 0      0.00%     17.14% # attempts to use FU when none available (Count)
system.cpu0.statFuBusy::MemRead                376684      8.90%     26.04% # attempts to use FU when none available (Count)
system.cpu0.statFuBusy::MemWrite               876009     20.69%     46.73% # attempts to use FU when none available (Count)
system.cpu0.statFuBusy::FloatMemRead          1942189     45.88%     92.61% # attempts to use FU when none available (Count)
system.cpu0.statFuBusy::FloatMemWrite          312750      7.39%    100.00% # attempts to use FU when none available (Count)
system.cpu0.statFuBusy::IprAccess                   0      0.00%    100.00% # attempts to use FU when none available (Count)
system.cpu0.statFuBusy::InstPrefetch                0      0.00%    100.00% # attempts to use FU when none available (Count)
system.cpu0.statIssuedInstType_0::No_OpClass      2766248      3.59%      3.59% # Number of instructions issued per FU type, per thread (Count)
system.cpu0.statIssuedInstType_0::IntAlu     32701084     42.49%     46.09% # Number of instructions issued per FU type, per thread (Count)
system.cpu0.statIssuedInstType_0::IntMult          287      0.00%     46.09% # Number of instructions issued per FU type, per thread (Count)
system.cpu0.statIssuedInstType_0::IntDiv         3061      0.00%     46.09% # Number of instructions issued per FU type, per thread (Count)
system.cpu0.statIssuedInstType_0::FloatAdd      3630806      4.72%     50.81% # Number of instructions issued per FU type, per thread (Count)
system.cpu0.statIssuedInstType_0::FloatCmp            0      0.00%     50.81% # Number of instructions issued per FU type, per thread (Count)
system.cpu0.statIssuedInstType_0::FloatCvt          534      0.00%     50.81% # Number of instructions issued per FU type, per thread (Count)
system.cpu0.statIssuedInstType_0::FloatMult            0      0.00%     50.81% # Number of instructions issued per FU type, per thread (Count)
system.cpu0.statIssuedInstType_0::FloatMultAcc            0      0.00%     50.81% # Number of instructions issued per FU type, per thread (Count)
system.cpu0.statIssuedInstType_0::FloatDiv            0      0.00%     50.81% # Number of instructions issued per FU type, per thread (Count)
system.cpu0.statIssuedInstType_0::FloatMisc            0      0.00%     50.81% # Number of instructions issued per FU type, per thread (Count)
system.cpu0.statIssuedInstType_0::FloatSqrt            0      0.00%     50.81% # Number of instructions issued per FU type, per thread (Count)
system.cpu0.statIssuedInstType_0::SimdAdd         2656      0.00%     50.81% # Number of instructions issued per FU type, per thread (Count)
system.cpu0.statIssuedInstType_0::SimdAddAcc            0      0.00%     50.81% # Number of instructions issued per FU type, per thread (Count)
system.cpu0.statIssuedInstType_0::SimdAlu        32452      0.04%     50.86% # Number of instructions issued per FU type, per thread (Count)
system.cpu0.statIssuedInstType_0::SimdCmp           68      0.00%     50.86% # Number of instructions issued per FU type, per thread (Count)
system.cpu0.statIssuedInstType_0::SimdCvt         6125      0.01%     50.86% # Number of instructions issued per FU type, per thread (Count)
system.cpu0.statIssuedInstType_0::SimdMisc         4123      0.01%     50.87% # Number of instructions issued per FU type, per thread (Count)
system.cpu0.statIssuedInstType_0::SimdMult            0      0.00%     50.87% # Number of instructions issued per FU type, per thread (Count)
system.cpu0.statIssuedInstType_0::SimdMultAcc            0      0.00%     50.87% # Number of instructions issued per FU type, per thread (Count)
system.cpu0.statIssuedInstType_0::SimdShift         1509      0.00%     50.87% # Number of instructions issued per FU type, per thread (Count)
system.cpu0.statIssuedInstType_0::SimdShiftAcc            0      0.00%     50.87% # Number of instructions issued per FU type, per thread (Count)
system.cpu0.statIssuedInstType_0::SimdDiv            0      0.00%     50.87% # Number of instructions issued per FU type, per thread (Count)
system.cpu0.statIssuedInstType_0::SimdSqrt            0      0.00%     50.87% # Number of instructions issued per FU type, per thread (Count)
system.cpu0.statIssuedInstType_0::SimdFloatAdd      7134099      9.27%     60.14% # Number of instructions issued per FU type, per thread (Count)
system.cpu0.statIssuedInstType_0::SimdFloatAlu            0      0.00%     60.14% # Number of instructions issued per FU type, per thread (Count)
system.cpu0.statIssuedInstType_0::SimdFloatCmp           24      0.00%     60.14% # Number of instructions issued per FU type, per thread (Count)
system.cpu0.statIssuedInstType_0::SimdFloatCvt      3017870      3.92%     64.06% # Number of instructions issued per FU type, per thread (Count)
system.cpu0.statIssuedInstType_0::SimdFloatDiv           17      0.00%     64.06% # Number of instructions issued per FU type, per thread (Count)
system.cpu0.statIssuedInstType_0::SimdFloatMisc            0      0.00%     64.06% # Number of instructions issued per FU type, per thread (Count)
system.cpu0.statIssuedInstType_0::SimdFloatMult      1006570      1.31%     65.37% # Number of instructions issued per FU type, per thread (Count)
system.cpu0.statIssuedInstType_0::SimdFloatMultAcc            0      0.00%     65.37% # Number of instructions issued per FU type, per thread (Count)
system.cpu0.statIssuedInstType_0::SimdFloatSqrt            0      0.00%     65.37% # Number of instructions issued per FU type, per thread (Count)
system.cpu0.statIssuedInstType_0::SimdReduceAdd            0      0.00%     65.37% # Number of instructions issued per FU type, per thread (Count)
system.cpu0.statIssuedInstType_0::SimdReduceAlu            0      0.00%     65.37% # Number of instructions issued per FU type, per thread (Count)
system.cpu0.statIssuedInstType_0::SimdReduceCmp            0      0.00%     65.37% # Number of instructions issued per FU type, per thread (Count)
system.cpu0.statIssuedInstType_0::SimdFloatReduceAdd            0      0.00%     65.37% # Number of instructions issued per FU type, per thread (Count)
system.cpu0.statIssuedInstType_0::SimdFloatReduceCmp            0      0.00%     65.37% # Number of instructions issued per FU type, per thread (Count)
system.cpu0.statIssuedInstType_0::SimdAes            0      0.00%     65.37% # Number of instructions issued per FU type, per thread (Count)
system.cpu0.statIssuedInstType_0::SimdAesMix            0      0.00%     65.37% # Number of instructions issued per FU type, per thread (Count)
system.cpu0.statIssuedInstType_0::SimdSha1Hash            0      0.00%     65.37% # Number of instructions issued per FU type, per thread (Count)
system.cpu0.statIssuedInstType_0::SimdSha1Hash2            0      0.00%     65.37% # Number of instructions issued per FU type, per thread (Count)
system.cpu0.statIssuedInstType_0::SimdSha256Hash            0      0.00%     65.37% # Number of instructions issued per FU type, per thread (Count)
system.cpu0.statIssuedInstType_0::SimdSha256Hash2            0      0.00%     65.37% # Number of instructions issued per FU type, per thread (Count)
system.cpu0.statIssuedInstType_0::SimdShaSigma2            0      0.00%     65.37% # Number of instructions issued per FU type, per thread (Count)
system.cpu0.statIssuedInstType_0::SimdShaSigma3            0      0.00%     65.37% # Number of instructions issued per FU type, per thread (Count)
system.cpu0.statIssuedInstType_0::SimdPredAlu            0      0.00%     65.37% # Number of instructions issued per FU type, per thread (Count)
system.cpu0.statIssuedInstType_0::MemRead      1556412      2.02%     67.39% # Number of instructions issued per FU type, per thread (Count)
system.cpu0.statIssuedInstType_0::MemWrite      3187247      4.14%     71.54% # Number of instructions issued per FU type, per thread (Count)
system.cpu0.statIssuedInstType_0::FloatMemRead     14275089     18.55%     90.09% # Number of instructions issued per FU type, per thread (Count)
system.cpu0.statIssuedInstType_0::FloatMemWrite      7629897      9.91%    100.00% # Number of instructions issued per FU type, per thread (Count)
system.cpu0.statIssuedInstType_0::IprAccess            0      0.00%    100.00% # Number of instructions issued per FU type, per thread (Count)
system.cpu0.statIssuedInstType_0::InstPrefetch            0      0.00%    100.00% # Number of instructions issued per FU type, per thread (Count)
system.cpu0.statIssuedInstType_0::total      76956178                       # Number of instructions issued per FU type, per thread (Count)
system.cpu0.issueRate                        0.287721                       # Inst issue rate ((Count/Cycle))
system.cpu0.fuBusy                            4233038                       # FU busy when requested (Count)
system.cpu0.fuBusyRate                       0.055006                       # FU busy rate (busy events/executed inst) ((Count/Count))
system.cpu0.intInstQueueReads               344632273                       # Number of integer instruction queue reads (Count)
system.cpu0.intInstQueueWrites               52488873                       # Number of integer instruction queue writes (Count)
system.cpu0.intInstQueueWakeupAccesses       35403743                       # Number of integer instruction queue wakeup accesses (Count)
system.cpu0.fpInstQueueReads                 80471706                       # Number of floating instruction queue reads (Count)
system.cpu0.fpInstQueueWrites                48993352                       # Number of floating instruction queue writes (Count)
system.cpu0.fpInstQueueWakeupAccesses        38636344                       # Number of floating instruction queue wakeup accesses (Count)
system.cpu0.vecInstQueueReads                       0                       # Number of vector instruction queue reads (Count)
system.cpu0.vecInstQueueWrites                      0                       # Number of vector instruction queue writes (Count)
system.cpu0.vecInstQueueWakeupAccesses              0                       # Number of vector instruction queue wakeup accesses (Count)
system.cpu0.intAluAccesses                   36705599                       # Number of integer alu accesses (Count)
system.cpu0.fpAluAccesses                    41717369                       # Number of floating point alu accesses (Count)
system.cpu0.vecAluAccesses                          0                       # Number of vector alu accesses (Count)
system.cpu0.numInsts                         76930149                       # Number of executed instructions (Count)
system.cpu0.numLoadInsts                     15825551                       # Number of load instructions executed (Count)
system.cpu0.numSquashedInsts                    26029                       # Number of squashed instructions skipped in execute (Count)
system.cpu0.numSwp                                  0                       # Number of swp insts executed (Count)
system.cpu0.numNop                                  0                       # Number of nop insts executed (Count)
system.cpu0.numRefs                          26641697                       # Number of memory reference insts executed (Count)
system.cpu0.numBranches                       5398605                       # Number of branches executed (Count)
system.cpu0.numStoreInsts                    10816146                       # Number of stores executed (Count)
system.cpu0.numRate                          0.287624                       # Inst execution rate ((Count/Cycle))
system.cpu0.timesIdled                           2032                       # Number of times that the entire CPU went into an idle state and unscheduled itself (Count)
system.cpu0.idleCycles                         511013                       # Total number of cycles that the CPU has spent unscheduled due to idling (Cycle)
system.cpu0.committedInsts                   28666673                       # Number of Instructions Simulated (Count)
system.cpu0.committedOps                     52466630                       # Number of Ops (including micro ops) Simulated (Count)
system.cpu0.cpi                              9.330263                       # CPI: Cycles Per Instruction ((Cycle/Count))
system.cpu0.totalCpi                         9.330263                       # CPI: Total CPI of All Threads ((Cycle/Count))
system.cpu0.ipc                              0.107178                       # IPC: Instructions Per Cycle ((Count/Cycle))
system.cpu0.totalIpc                         0.107178                       # IPC: Total IPC of All Threads ((Count/Cycle))
system.cpu0.intRegfileReads                  58201963                       # Number of integer regfile reads (Count)
system.cpu0.intRegfileWrites                 23090792                       # Number of integer regfile writes (Count)
system.cpu0.fpRegfileReads                   42201305                       # Number of floating regfile reads (Count)
system.cpu0.fpRegfileWrites                  27998889                       # Number of floating regfile writes (Count)
system.cpu0.ccRegfileReads                   32935750                       # number of cc regfile reads (Count)
system.cpu0.ccRegfileWrites                  19753163                       # number of cc regfile writes (Count)
system.cpu0.miscRegfileReads                 37460327                       # number of misc regfile reads (Count)
system.cpu0.miscRegfileWrites                     234                       # number of misc regfile writes (Count)
system.cpu0.MemDepUnit__0.insertedLoads      15729235                       # Number of loads inserted to the mem dependence unit. (Count)
system.cpu0.MemDepUnit__0.insertedStores     10823001                       # Number of stores inserted to the mem dependence unit. (Count)
system.cpu0.MemDepUnit__0.conflictingLoads       129463                       # Number of conflicting loads. (Count)
system.cpu0.MemDepUnit__0.conflictingStores       128718                       # Number of conflicting stores. (Count)
system.cpu0.MemDepUnit__1.insertedLoads             0                       # Number of loads inserted to the mem dependence unit. (Count)
system.cpu0.MemDepUnit__1.insertedStores            0                       # Number of stores inserted to the mem dependence unit. (Count)
system.cpu0.MemDepUnit__1.conflictingLoads            0                       # Number of conflicting loads. (Count)
system.cpu0.MemDepUnit__1.conflictingStores            0                       # Number of conflicting stores. (Count)
system.cpu0.MemDepUnit__2.insertedLoads             0                       # Number of loads inserted to the mem dependence unit. (Count)
system.cpu0.MemDepUnit__2.insertedStores            0                       # Number of stores inserted to the mem dependence unit. (Count)
system.cpu0.MemDepUnit__2.conflictingLoads            0                       # Number of conflicting loads. (Count)
system.cpu0.MemDepUnit__2.conflictingStores            0                       # Number of conflicting stores. (Count)
system.cpu0.MemDepUnit__3.insertedLoads             0                       # Number of loads inserted to the mem dependence unit. (Count)
system.cpu0.MemDepUnit__3.insertedStores            0                       # Number of stores inserted to the mem dependence unit. (Count)
system.cpu0.MemDepUnit__3.conflictingLoads            0                       # Number of conflicting loads. (Count)
system.cpu0.MemDepUnit__3.conflictingStores            0                       # Number of conflicting stores. (Count)
system.cpu0.branchPred.lookups                5828312                       # Number of BP lookups (Count)
system.cpu0.branchPred.condPredicted          5776123                       # Number of conditional branches predicted (Count)
system.cpu0.branchPred.condIncorrect             9096                       # Number of conditional branches incorrect (Count)
system.cpu0.branchPred.BTBLookups             2702254                       # Number of BTB lookups (Count)
system.cpu0.branchPred.BTBHits                2698479                       # Number of BTB hits (Count)
system.cpu0.branchPred.BTBHitRatio           0.998603                       # BTB Hit Ratio (Ratio)
system.cpu0.branchPred.RASUsed                  19556                       # Number of times the RAS was used to get a target. (Count)
system.cpu0.branchPred.RASIncorrect                13                       # Number of incorrect RAS predictions. (Count)
system.cpu0.branchPred.indirectLookups           9601                       # Number of indirect predictor lookups. (Count)
system.cpu0.branchPred.indirectHits              5686                       # Number of indirect target hits. (Count)
system.cpu0.branchPred.indirectMisses            3915                       # Number of indirect misses. (Count)
system.cpu0.branchPred.indirectMispredicted          829                       # Number of mispredicted indirect branches. (Count)
system.cpu0.commit.commitSquashedInsts       21655372                       # The number of squashed insts skipped by commit (Count)
system.cpu0.commit.commitNonSpecStalls            904                       # The number of times commit has been forced to stall to communicate backwards (Count)
system.cpu0.commit.branchMispredicts             9903                       # The number of times a branch was mispredicted (Count)
system.cpu0.commit.numCommittedDist::samples    264065913                       # Number of insts commited each cycle (Count)
system.cpu0.commit.numCommittedDist::mean     0.198688                       # Number of insts commited each cycle (Count)
system.cpu0.commit.numCommittedDist::stdev     1.118618                       # Number of insts commited each cycle (Count)
system.cpu0.commit.numCommittedDist::underflows            0      0.00%      0.00% # Number of insts commited each cycle (Count)
system.cpu0.commit.numCommittedDist::0      252534348     95.63%     95.63% # Number of insts commited each cycle (Count)
system.cpu0.commit.numCommittedDist::1        2875451      1.09%     96.72% # Number of insts commited each cycle (Count)
system.cpu0.commit.numCommittedDist::2        1194046      0.45%     97.17% # Number of insts commited each cycle (Count)
system.cpu0.commit.numCommittedDist::3        1445577      0.55%     97.72% # Number of insts commited each cycle (Count)
system.cpu0.commit.numCommittedDist::4         960952      0.36%     98.09% # Number of insts commited each cycle (Count)
system.cpu0.commit.numCommittedDist::5         421133      0.16%     98.24% # Number of insts commited each cycle (Count)
system.cpu0.commit.numCommittedDist::6          29905      0.01%     98.26% # Number of insts commited each cycle (Count)
system.cpu0.commit.numCommittedDist::7          98555      0.04%     98.29% # Number of insts commited each cycle (Count)
system.cpu0.commit.numCommittedDist::8        4505946      1.71%    100.00% # Number of insts commited each cycle (Count)
system.cpu0.commit.numCommittedDist::overflows            0      0.00%    100.00% # Number of insts commited each cycle (Count)
system.cpu0.commit.numCommittedDist::min_value            0                       # Number of insts commited each cycle (Count)
system.cpu0.commit.numCommittedDist::max_value            8                       # Number of insts commited each cycle (Count)
system.cpu0.commit.numCommittedDist::total    264065913                       # Number of insts commited each cycle (Count)
system.cpu0.commit.instsCommitted            28666673                       # Number of instructions committed (Count)
system.cpu0.commit.opsCommitted              52466630                       # Number of ops (including micro ops) committed (Count)
system.cpu0.commit.memRefs                   12183134                       # Number of memory references committed (Count)
system.cpu0.commit.loads                      9383021                       # Number of loads committed (Count)
system.cpu0.commit.amos                             0                       # Number of atomic instructions committed (Count)
system.cpu0.commit.membars                        444                       # Number of memory barriers committed (Count)
system.cpu0.commit.branches                   4732618                       # Number of branches committed (Count)
system.cpu0.commit.vectorInstructions               0                       # Number of committed Vector instructions. (Count)
system.cpu0.commit.floating                  28319790                       # Number of committed floating point instructions. (Count)
system.cpu0.commit.integer                   35651717                       # Number of committed integer instructions. (Count)
system.cpu0.commit.functionCalls                 8173                       # Number of function calls committed. (Count)
system.cpu0.commit.committedInstType_0::No_OpClass         6734      0.01%      0.01% # Class of committed instruction (Count)
system.cpu0.commit.committedInstType_0::IntAlu     25483032     48.57%     48.58% # Class of committed instruction (Count)
system.cpu0.commit.committedInstType_0::IntMult          260      0.00%     48.58% # Class of committed instruction (Count)
system.cpu0.commit.committedInstType_0::IntDiv         2811      0.01%     48.59% # Class of committed instruction (Count)
system.cpu0.commit.committedInstType_0::FloatAdd      3627930      6.91%     55.50% # Class of committed instruction (Count)
system.cpu0.commit.committedInstType_0::FloatCmp            0      0.00%     55.50% # Class of committed instruction (Count)
system.cpu0.commit.committedInstType_0::FloatCvt          416      0.00%     55.50% # Class of committed instruction (Count)
system.cpu0.commit.committedInstType_0::FloatMult            0      0.00%     55.50% # Class of committed instruction (Count)
system.cpu0.commit.committedInstType_0::FloatMultAcc            0      0.00%     55.50% # Class of committed instruction (Count)
system.cpu0.commit.committedInstType_0::FloatDiv            0      0.00%     55.50% # Class of committed instruction (Count)
system.cpu0.commit.committedInstType_0::FloatMisc            0      0.00%     55.50% # Class of committed instruction (Count)
system.cpu0.commit.committedInstType_0::FloatSqrt            0      0.00%     55.50% # Class of committed instruction (Count)
system.cpu0.commit.committedInstType_0::SimdAdd         2098      0.00%     55.51% # Class of committed instruction (Count)
system.cpu0.commit.committedInstType_0::SimdAddAcc            0      0.00%     55.51% # Class of committed instruction (Count)
system.cpu0.commit.committedInstType_0::SimdAlu        12656      0.02%     55.53% # Class of committed instruction (Count)
system.cpu0.commit.committedInstType_0::SimdCmp           66      0.00%     55.53% # Class of committed instruction (Count)
system.cpu0.commit.committedInstType_0::SimdCvt         4504      0.01%     55.54% # Class of committed instruction (Count)
system.cpu0.commit.committedInstType_0::SimdMisc         3511      0.01%     55.55% # Class of committed instruction (Count)
system.cpu0.commit.committedInstType_0::SimdMult            0      0.00%     55.55% # Class of committed instruction (Count)
system.cpu0.commit.committedInstType_0::SimdMultAcc            0      0.00%     55.55% # Class of committed instruction (Count)
system.cpu0.commit.committedInstType_0::SimdShift          727      0.00%     55.55% # Class of committed instruction (Count)
system.cpu0.commit.committedInstType_0::SimdShiftAcc            0      0.00%     55.55% # Class of committed instruction (Count)
system.cpu0.commit.committedInstType_0::SimdDiv            0      0.00%     55.55% # Class of committed instruction (Count)
system.cpu0.commit.committedInstType_0::SimdSqrt            0      0.00%     55.55% # Class of committed instruction (Count)
system.cpu0.commit.committedInstType_0::SimdFloatAdd      7129556     13.59%     69.14% # Class of committed instruction (Count)
system.cpu0.commit.committedInstType_0::SimdFloatAlu            0      0.00%     69.14% # Class of committed instruction (Count)
system.cpu0.commit.committedInstType_0::SimdFloatCmp           24      0.00%     69.14% # Class of committed instruction (Count)
system.cpu0.commit.committedInstType_0::SimdFloatCvt      3006847      5.73%     74.87% # Class of committed instruction (Count)
system.cpu0.commit.committedInstType_0::SimdFloatDiv           15      0.00%     74.87% # Class of committed instruction (Count)
system.cpu0.commit.committedInstType_0::SimdFloatMisc            0      0.00%     74.87% # Class of committed instruction (Count)
system.cpu0.commit.committedInstType_0::SimdFloatMult      1002309      1.91%     76.78% # Class of committed instruction (Count)
system.cpu0.commit.committedInstType_0::SimdFloatMultAcc            0      0.00%     76.78% # Class of committed instruction (Count)
system.cpu0.commit.committedInstType_0::SimdFloatSqrt            0      0.00%     76.78% # Class of committed instruction (Count)
system.cpu0.commit.committedInstType_0::SimdReduceAdd            0      0.00%     76.78% # Class of committed instruction (Count)
system.cpu0.commit.committedInstType_0::SimdReduceAlu            0      0.00%     76.78% # Class of committed instruction (Count)
system.cpu0.commit.committedInstType_0::SimdReduceCmp            0      0.00%     76.78% # Class of committed instruction (Count)
system.cpu0.commit.committedInstType_0::SimdFloatReduceAdd            0      0.00%     76.78% # Class of committed instruction (Count)
system.cpu0.commit.committedInstType_0::SimdFloatReduceCmp            0      0.00%     76.78% # Class of committed instruction (Count)
system.cpu0.commit.committedInstType_0::SimdAes            0      0.00%     76.78% # Class of committed instruction (Count)
system.cpu0.commit.committedInstType_0::SimdAesMix            0      0.00%     76.78% # Class of committed instruction (Count)
system.cpu0.commit.committedInstType_0::SimdSha1Hash            0      0.00%     76.78% # Class of committed instruction (Count)
system.cpu0.commit.committedInstType_0::SimdSha1Hash2            0      0.00%     76.78% # Class of committed instruction (Count)
system.cpu0.commit.committedInstType_0::SimdSha256Hash            0      0.00%     76.78% # Class of committed instruction (Count)
system.cpu0.commit.committedInstType_0::SimdSha256Hash2            0      0.00%     76.78% # Class of committed instruction (Count)
system.cpu0.commit.committedInstType_0::SimdShaSigma2            0      0.00%     76.78% # Class of committed instruction (Count)
system.cpu0.commit.committedInstType_0::SimdShaSigma3            0      0.00%     76.78% # Class of committed instruction (Count)
system.cpu0.commit.committedInstType_0::SimdPredAlu            0      0.00%     76.78% # Class of committed instruction (Count)
system.cpu0.commit.committedInstType_0::MemRead       239443      0.46%     77.24% # Class of committed instruction (Count)
system.cpu0.commit.committedInstType_0::MemWrite       420057      0.80%     78.04% # Class of committed instruction (Count)
system.cpu0.commit.committedInstType_0::FloatMemRead      9143578     17.43%     95.46% # Class of committed instruction (Count)
system.cpu0.commit.committedInstType_0::FloatMemWrite      2380056      4.54%    100.00% # Class of committed instruction (Count)
system.cpu0.commit.committedInstType_0::IprAccess            0      0.00%    100.00% # Class of committed instruction (Count)
system.cpu0.commit.committedInstType_0::InstPrefetch            0      0.00%    100.00% # Class of committed instruction (Count)
system.cpu0.commit.committedInstType_0::total     52466630                       # Class of committed instruction (Count)
system.cpu0.commit.commitEligibleSamples      4505946                       # number cycles where commit BW limit reached (Cycle)
system.cpu0.dcache.demandHits::cpu0.data     12847164                       # number of demand (read+write) hits (Count)
system.cpu0.dcache.demandHits::total         12847164                       # number of demand (read+write) hits (Count)
system.cpu0.dcache.overallHits::cpu0.data     14122370                       # number of overall hits (Count)
system.cpu0.dcache.overallHits::total        14122370                       # number of overall hits (Count)
system.cpu0.dcache.demandMisses::cpu0.data      4020015                       # number of demand (read+write) misses (Count)
system.cpu0.dcache.demandMisses::total        4020015                       # number of demand (read+write) misses (Count)
system.cpu0.dcache.overallMisses::cpu0.data      4119633                       # number of overall misses (Count)
system.cpu0.dcache.overallMisses::total       4119633                       # number of overall misses (Count)
system.cpu0.dcache.demandMissLatency::cpu0.data 341742053978                       # number of demand (read+write) miss ticks (Tick)
system.cpu0.dcache.demandMissLatency::total 341742053978                       # number of demand (read+write) miss ticks (Tick)
system.cpu0.dcache.overallMissLatency::cpu0.data 341742053978                       # number of overall miss ticks (Tick)
system.cpu0.dcache.overallMissLatency::total 341742053978                       # number of overall miss ticks (Tick)
system.cpu0.dcache.demandAccesses::cpu0.data     16867179                       # number of demand (read+write) accesses (Count)
system.cpu0.dcache.demandAccesses::total     16867179                       # number of demand (read+write) accesses (Count)
system.cpu0.dcache.overallAccesses::cpu0.data     18242003                       # number of overall (read+write) accesses (Count)
system.cpu0.dcache.overallAccesses::total     18242003                       # number of overall (read+write) accesses (Count)
system.cpu0.dcache.demandMissRate::cpu0.data     0.238334                       # miss rate for demand accesses (Ratio)
system.cpu0.dcache.demandMissRate::total     0.238334                       # miss rate for demand accesses (Ratio)
system.cpu0.dcache.overallMissRate::cpu0.data     0.225832                       # miss rate for overall accesses (Ratio)
system.cpu0.dcache.overallMissRate::total     0.225832                       # miss rate for overall accesses (Ratio)
system.cpu0.dcache.demandAvgMissLatency::cpu0.data 85010.143987                       # average overall miss latency in ticks ((Tick/Count))
system.cpu0.dcache.demandAvgMissLatency::total 85010.143987                       # average overall miss latency in ticks ((Tick/Count))
system.cpu0.dcache.overallAvgMissLatency::cpu0.data 82954.489873                       # average overall miss latency ((Tick/Count))
system.cpu0.dcache.overallAvgMissLatency::total 82954.489873                       # average overall miss latency ((Tick/Count))
system.cpu0.dcache.blockedCycles::no_mshrs     29453610                       # number of cycles access was blocked (Cycle)
system.cpu0.dcache.blockedCycles::no_targets         7212                       # number of cycles access was blocked (Cycle)
system.cpu0.dcache.blockedCauses::no_mshrs       162528                       # number of times access was blocked (Count)
system.cpu0.dcache.blockedCauses::no_targets           43                       # number of times access was blocked (Count)
system.cpu0.dcache.avgBlocked::no_mshrs    181.221759                       # average number of cycles each access was blocked ((Cycle/Count))
system.cpu0.dcache.avgBlocked::no_targets   167.720930                       # average number of cycles each access was blocked ((Cycle/Count))
system.cpu0.dcache.writebacks::writebacks       314764                       # number of writebacks (Count)
system.cpu0.dcache.writebacks::total           314764                       # number of writebacks (Count)
system.cpu0.dcache.demandMshrHits::cpu0.data      3013585                       # number of demand (read+write) MSHR hits (Count)
system.cpu0.dcache.demandMshrHits::total      3013585                       # number of demand (read+write) MSHR hits (Count)
system.cpu0.dcache.overallMshrHits::cpu0.data      3013585                       # number of overall MSHR hits (Count)
system.cpu0.dcache.overallMshrHits::total      3013585                       # number of overall MSHR hits (Count)
system.cpu0.dcache.demandMshrMisses::cpu0.data      1006430                       # number of demand (read+write) MSHR misses (Count)
system.cpu0.dcache.demandMshrMisses::total      1006430                       # number of demand (read+write) MSHR misses (Count)
system.cpu0.dcache.overallMshrMisses::cpu0.data      1068926                       # number of overall MSHR misses (Count)
system.cpu0.dcache.overallMshrMisses::total      1068926                       # number of overall MSHR misses (Count)
system.cpu0.dcache.demandMshrMissLatency::cpu0.data 138596250729                       # number of demand (read+write) MSHR miss ticks (Tick)
system.cpu0.dcache.demandMshrMissLatency::total 138596250729                       # number of demand (read+write) MSHR miss ticks (Tick)
system.cpu0.dcache.overallMshrMissLatency::cpu0.data 148173215979                       # number of overall MSHR miss ticks (Tick)
system.cpu0.dcache.overallMshrMissLatency::total 148173215979                       # number of overall MSHR miss ticks (Tick)
system.cpu0.dcache.demandMshrMissRate::cpu0.data     0.059668                       # mshr miss ratio for demand accesses (Ratio)
system.cpu0.dcache.demandMshrMissRate::total     0.059668                       # mshr miss ratio for demand accesses (Ratio)
system.cpu0.dcache.overallMshrMissRate::cpu0.data     0.058597                       # mshr miss ratio for overall accesses (Ratio)
system.cpu0.dcache.overallMshrMissRate::total     0.058597                       # mshr miss ratio for overall accesses (Ratio)
system.cpu0.dcache.demandAvgMshrMissLatency::cpu0.data 137710.770475                       # average overall mshr miss latency ((Tick/Count))
system.cpu0.dcache.demandAvgMshrMissLatency::total 137710.770475                       # average overall mshr miss latency ((Tick/Count))
system.cpu0.dcache.overallAvgMshrMissLatency::cpu0.data 138618.778081                       # average overall mshr miss latency ((Tick/Count))
system.cpu0.dcache.overallAvgMshrMissLatency::total 138618.778081                       # average overall mshr miss latency ((Tick/Count))
system.cpu0.dcache.replacements               1067614                       # number of replacements (Count)
system.cpu0.dcache.LockedRMWReadReq.hits::cpu0.data          181                       # number of LockedRMWReadReq hits (Count)
system.cpu0.dcache.LockedRMWReadReq.hits::total          181                       # number of LockedRMWReadReq hits (Count)
system.cpu0.dcache.LockedRMWReadReq.misses::cpu0.data           41                       # number of LockedRMWReadReq misses (Count)
system.cpu0.dcache.LockedRMWReadReq.misses::total           41                       # number of LockedRMWReadReq misses (Count)
system.cpu0.dcache.LockedRMWReadReq.missLatency::cpu0.data      1000250                       # number of LockedRMWReadReq miss ticks (Tick)
system.cpu0.dcache.LockedRMWReadReq.missLatency::total      1000250                       # number of LockedRMWReadReq miss ticks (Tick)
system.cpu0.dcache.LockedRMWReadReq.accesses::cpu0.data          222                       # number of LockedRMWReadReq accesses(hits+misses) (Count)
system.cpu0.dcache.LockedRMWReadReq.accesses::total          222                       # number of LockedRMWReadReq accesses(hits+misses) (Count)
system.cpu0.dcache.LockedRMWReadReq.missRate::cpu0.data     0.184685                       # miss rate for LockedRMWReadReq accesses (Ratio)
system.cpu0.dcache.LockedRMWReadReq.missRate::total     0.184685                       # miss rate for LockedRMWReadReq accesses (Ratio)
system.cpu0.dcache.LockedRMWReadReq.avgMissLatency::cpu0.data 24396.341463                       # average LockedRMWReadReq miss latency ((Tick/Count))
system.cpu0.dcache.LockedRMWReadReq.avgMissLatency::total 24396.341463                       # average LockedRMWReadReq miss latency ((Tick/Count))
system.cpu0.dcache.LockedRMWReadReq.mshrMisses::cpu0.data           41                       # number of LockedRMWReadReq MSHR misses (Count)
system.cpu0.dcache.LockedRMWReadReq.mshrMisses::total           41                       # number of LockedRMWReadReq MSHR misses (Count)
system.cpu0.dcache.LockedRMWReadReq.mshrMissLatency::cpu0.data      2482750                       # number of LockedRMWReadReq MSHR miss ticks (Tick)
system.cpu0.dcache.LockedRMWReadReq.mshrMissLatency::total      2482750                       # number of LockedRMWReadReq MSHR miss ticks (Tick)
system.cpu0.dcache.LockedRMWReadReq.mshrMissRate::cpu0.data     0.184685                       # mshr miss rate for LockedRMWReadReq accesses (Ratio)
system.cpu0.dcache.LockedRMWReadReq.mshrMissRate::total     0.184685                       # mshr miss rate for LockedRMWReadReq accesses (Ratio)
system.cpu0.dcache.LockedRMWReadReq.avgMshrMissLatency::cpu0.data 60554.878049                       # average LockedRMWReadReq mshr miss latency ((Tick/Count))
system.cpu0.dcache.LockedRMWReadReq.avgMshrMissLatency::total 60554.878049                       # average LockedRMWReadReq mshr miss latency ((Tick/Count))
system.cpu0.dcache.LockedRMWWriteReq.hits::cpu0.data          222                       # number of LockedRMWWriteReq hits (Count)
system.cpu0.dcache.LockedRMWWriteReq.hits::total          222                       # number of LockedRMWWriteReq hits (Count)
system.cpu0.dcache.LockedRMWWriteReq.accesses::cpu0.data          222                       # number of LockedRMWWriteReq accesses(hits+misses) (Count)
system.cpu0.dcache.LockedRMWWriteReq.accesses::total          222                       # number of LockedRMWWriteReq accesses(hits+misses) (Count)
system.cpu0.dcache.ReadReq.hits::cpu0.data     10596197                       # number of ReadReq hits (Count)
system.cpu0.dcache.ReadReq.hits::total       10596197                       # number of ReadReq hits (Count)
system.cpu0.dcache.ReadReq.misses::cpu0.data      3721053                       # number of ReadReq misses (Count)
system.cpu0.dcache.ReadReq.misses::total      3721053                       # number of ReadReq misses (Count)
system.cpu0.dcache.ReadReq.missLatency::cpu0.data 292404218750                       # number of ReadReq miss ticks (Tick)
system.cpu0.dcache.ReadReq.missLatency::total 292404218750                       # number of ReadReq miss ticks (Tick)
system.cpu0.dcache.ReadReq.accesses::cpu0.data     14317250                       # number of ReadReq accesses(hits+misses) (Count)
system.cpu0.dcache.ReadReq.accesses::total     14317250                       # number of ReadReq accesses(hits+misses) (Count)
system.cpu0.dcache.ReadReq.missRate::cpu0.data     0.259900                       # miss rate for ReadReq accesses (Ratio)
system.cpu0.dcache.ReadReq.missRate::total     0.259900                       # miss rate for ReadReq accesses (Ratio)
system.cpu0.dcache.ReadReq.avgMissLatency::cpu0.data 78581.041106                       # average ReadReq miss latency ((Tick/Count))
system.cpu0.dcache.ReadReq.avgMissLatency::total 78581.041106                       # average ReadReq miss latency ((Tick/Count))
system.cpu0.dcache.ReadReq.mshrHits::cpu0.data      3013574                       # number of ReadReq MSHR hits (Count)
system.cpu0.dcache.ReadReq.mshrHits::total      3013574                       # number of ReadReq MSHR hits (Count)
system.cpu0.dcache.ReadReq.mshrMisses::cpu0.data       707479                       # number of ReadReq MSHR misses (Count)
system.cpu0.dcache.ReadReq.mshrMisses::total       707479                       # number of ReadReq MSHR misses (Count)
system.cpu0.dcache.ReadReq.mshrMissLatency::cpu0.data  89408495250                       # number of ReadReq MSHR miss ticks (Tick)
system.cpu0.dcache.ReadReq.mshrMissLatency::total  89408495250                       # number of ReadReq MSHR miss ticks (Tick)
system.cpu0.dcache.ReadReq.mshrMissRate::cpu0.data     0.049414                       # mshr miss rate for ReadReq accesses (Ratio)
system.cpu0.dcache.ReadReq.mshrMissRate::total     0.049414                       # mshr miss rate for ReadReq accesses (Ratio)
system.cpu0.dcache.ReadReq.avgMshrMissLatency::cpu0.data 126376.182544                       # average ReadReq mshr miss latency ((Tick/Count))
system.cpu0.dcache.ReadReq.avgMshrMissLatency::total 126376.182544                       # average ReadReq mshr miss latency ((Tick/Count))
system.cpu0.dcache.SoftPFReq.hits::cpu0.data      1275206                       # number of SoftPFReq hits (Count)
system.cpu0.dcache.SoftPFReq.hits::total      1275206                       # number of SoftPFReq hits (Count)
system.cpu0.dcache.SoftPFReq.misses::cpu0.data        99618                       # number of SoftPFReq misses (Count)
system.cpu0.dcache.SoftPFReq.misses::total        99618                       # number of SoftPFReq misses (Count)
system.cpu0.dcache.SoftPFReq.accesses::cpu0.data      1374824                       # number of SoftPFReq accesses(hits+misses) (Count)
system.cpu0.dcache.SoftPFReq.accesses::total      1374824                       # number of SoftPFReq accesses(hits+misses) (Count)
system.cpu0.dcache.SoftPFReq.missRate::cpu0.data     0.072459                       # miss rate for SoftPFReq accesses (Ratio)
system.cpu0.dcache.SoftPFReq.missRate::total     0.072459                       # miss rate for SoftPFReq accesses (Ratio)
system.cpu0.dcache.SoftPFReq.mshrMisses::cpu0.data        62496                       # number of SoftPFReq MSHR misses (Count)
system.cpu0.dcache.SoftPFReq.mshrMisses::total        62496                       # number of SoftPFReq MSHR misses (Count)
system.cpu0.dcache.SoftPFReq.mshrMissLatency::cpu0.data   9576965250                       # number of SoftPFReq MSHR miss ticks (Tick)
system.cpu0.dcache.SoftPFReq.mshrMissLatency::total   9576965250                       # number of SoftPFReq MSHR miss ticks (Tick)
system.cpu0.dcache.SoftPFReq.mshrMissRate::cpu0.data     0.045457                       # mshr miss rate for SoftPFReq accesses (Ratio)
system.cpu0.dcache.SoftPFReq.mshrMissRate::total     0.045457                       # mshr miss rate for SoftPFReq accesses (Ratio)
system.cpu0.dcache.SoftPFReq.avgMshrMissLatency::cpu0.data 153241.251440                       # average SoftPFReq mshr miss latency ((Tick/Count))
system.cpu0.dcache.SoftPFReq.avgMshrMissLatency::total 153241.251440                       # average SoftPFReq mshr miss latency ((Tick/Count))
system.cpu0.dcache.WriteReq.hits::cpu0.data      2250967                       # number of WriteReq hits (Count)
system.cpu0.dcache.WriteReq.hits::total       2250967                       # number of WriteReq hits (Count)
system.cpu0.dcache.WriteReq.misses::cpu0.data       298962                       # number of WriteReq misses (Count)
system.cpu0.dcache.WriteReq.misses::total       298962                       # number of WriteReq misses (Count)
system.cpu0.dcache.WriteReq.missLatency::cpu0.data  49337835228                       # number of WriteReq miss ticks (Tick)
system.cpu0.dcache.WriteReq.missLatency::total  49337835228                       # number of WriteReq miss ticks (Tick)
system.cpu0.dcache.WriteReq.accesses::cpu0.data      2549929                       # number of WriteReq accesses(hits+misses) (Count)
system.cpu0.dcache.WriteReq.accesses::total      2549929                       # number of WriteReq accesses(hits+misses) (Count)
system.cpu0.dcache.WriteReq.missRate::cpu0.data     0.117243                       # miss rate for WriteReq accesses (Ratio)
system.cpu0.dcache.WriteReq.missRate::total     0.117243                       # miss rate for WriteReq accesses (Ratio)
system.cpu0.dcache.WriteReq.avgMissLatency::cpu0.data 165030.456138                       # average WriteReq miss latency ((Tick/Count))
system.cpu0.dcache.WriteReq.avgMissLatency::total 165030.456138                       # average WriteReq miss latency ((Tick/Count))
system.cpu0.dcache.WriteReq.mshrHits::cpu0.data           11                       # number of WriteReq MSHR hits (Count)
system.cpu0.dcache.WriteReq.mshrHits::total           11                       # number of WriteReq MSHR hits (Count)
system.cpu0.dcache.WriteReq.mshrMisses::cpu0.data       298951                       # number of WriteReq MSHR misses (Count)
system.cpu0.dcache.WriteReq.mshrMisses::total       298951                       # number of WriteReq MSHR misses (Count)
system.cpu0.dcache.WriteReq.mshrMissLatency::cpu0.data  49187755479                       # number of WriteReq MSHR miss ticks (Tick)
system.cpu0.dcache.WriteReq.mshrMissLatency::total  49187755479                       # number of WriteReq MSHR miss ticks (Tick)
system.cpu0.dcache.WriteReq.mshrMissRate::cpu0.data     0.117239                       # mshr miss rate for WriteReq accesses (Ratio)
system.cpu0.dcache.WriteReq.mshrMissRate::total     0.117239                       # mshr miss rate for WriteReq accesses (Ratio)
system.cpu0.dcache.WriteReq.avgMshrMissLatency::cpu0.data 164534.507257                       # average WriteReq mshr miss latency ((Tick/Count))
system.cpu0.dcache.WriteReq.avgMshrMissLatency::total 164534.507257                       # average WriteReq mshr miss latency ((Tick/Count))
system.cpu0.dcache.power_state.pwrStateResidencyTicks::UNDEFINED  66866901500                       # Cumulative time (in ticks) in various power states (Tick)
system.cpu0.dcache.tags.tagsInUse         1023.018542                       # Average ticks per tags in use ((Tick/Count))
system.cpu0.dcache.tags.totalRefs            15191744                       # Total number of references to valid blocks. (Count)
system.cpu0.dcache.tags.sampledRefs           1068867                       # Sample count of references to valid blocks. (Count)
system.cpu0.dcache.tags.avgRefs             14.212941                       # Average number of references to valid blocks. ((Count/Count))
system.cpu0.dcache.tags.warmupTick             154000                       # The tick when the warmup percentage was hit. (Tick)
system.cpu0.dcache.tags.occupancies::cpu0.data  1023.018542                       # Average occupied blocks per tick, per requestor ((Count/Tick))
system.cpu0.dcache.tags.avgOccs::cpu0.data     0.999042                       # Average percentage of cache occupancy ((Ratio/Tick))
system.cpu0.dcache.tags.avgOccs::total       0.999042                       # Average percentage of cache occupancy ((Ratio/Tick))
system.cpu0.dcache.tags.occupanciesTaskId::1024         1024                       # Occupied blocks per task id (Count)
system.cpu0.dcache.tags.ageTaskId_1024::0          125                       # Occupied blocks per task id, per block age (Count)
system.cpu0.dcache.tags.ageTaskId_1024::1          898                       # Occupied blocks per task id, per block age (Count)
system.cpu0.dcache.tags.ageTaskId_1024::4            1                       # Occupied blocks per task id, per block age (Count)
system.cpu0.dcache.tags.ratioOccsTaskId::1024            1                       # Ratio of occupied blocks and all blocks, per task id (Ratio)
system.cpu0.dcache.tags.tagAccesses          37553761                       # Number of tag accesses (Count)
system.cpu0.dcache.tags.dataAccesses         37553761                       # Number of data accesses (Count)
system.cpu0.dcache.tags.power_state.pwrStateResidencyTicks::UNDEFINED  66866901500                       # Cumulative time (in ticks) in various power states (Tick)
system.cpu0.decode.idleCycles                 2324548                       # Number of cycles decode is idle (Cycle)
system.cpu0.decode.blockedCycles            253850886                       # Number of cycles decode is blocked (Cycle)
system.cpu0.decode.runCycles                  7709793                       # Number of cycles decode is running (Cycle)
system.cpu0.decode.unblockCycles              2808574                       # Number of cycles decode is unblocking (Cycle)
system.cpu0.decode.squashCycles                262793                       # Number of cycles decode is squashing (Cycle)
system.cpu0.decode.branchResolved             2444501                       # Number of times decode resolved a branch (Count)
system.cpu0.decode.branchMispred                 1360                       # Number of times decode detected a branch misprediction (Count)
system.cpu0.decode.decodedInsts              79707191                       # Number of instructions handled by decode (Count)
system.cpu0.decode.squashedInsts                 6498                       # Number of squashed instructions handled by decode (Count)
system.cpu0.dtb_walker_cache.blockedCycles::no_mshrs            0                       # number of cycles access was blocked (Cycle)
system.cpu0.dtb_walker_cache.blockedCycles::no_targets            0                       # number of cycles access was blocked (Cycle)
system.cpu0.dtb_walker_cache.blockedCauses::no_mshrs            0                       # number of times access was blocked (Count)
system.cpu0.dtb_walker_cache.blockedCauses::no_targets            0                       # number of times access was blocked (Count)
system.cpu0.dtb_walker_cache.avgBlocked::no_mshrs          nan                       # average number of cycles each access was blocked ((Cycle/Count))
system.cpu0.dtb_walker_cache.avgBlocked::no_targets          nan                       # average number of cycles each access was blocked ((Cycle/Count))
system.cpu0.dtb_walker_cache.replacements            0                       # number of replacements (Count)
system.cpu0.dtb_walker_cache.power_state.pwrStateResidencyTicks::UNDEFINED  66866901500                       # Cumulative time (in ticks) in various power states (Tick)
system.cpu0.dtb_walker_cache.tags.tagsInUse            0                       # Average ticks per tags in use ((Tick/Count))
system.cpu0.dtb_walker_cache.tags.totalRefs            0                       # Total number of references to valid blocks. (Count)
system.cpu0.dtb_walker_cache.tags.sampledRefs            0                       # Sample count of references to valid blocks. (Count)
system.cpu0.dtb_walker_cache.tags.avgRefs          nan                       # Average number of references to valid blocks. ((Count/Count))
system.cpu0.dtb_walker_cache.tags.warmupTick            0                       # The tick when the warmup percentage was hit. (Tick)
system.cpu0.dtb_walker_cache.tags.tagAccesses            0                       # Number of tag accesses (Count)
system.cpu0.dtb_walker_cache.tags.dataAccesses            0                       # Number of data accesses (Count)
system.cpu0.dtb_walker_cache.tags.power_state.pwrStateResidencyTicks::UNDEFINED  66866901500                       # Cumulative time (in ticks) in various power states (Tick)
system.cpu0.fetch.icacheStallCycles           5523918                       # Number of cycles fetch is stalled on an Icache miss (Cycle)
system.cpu0.fetch.insts                      43721308                       # Number of instructions fetch has processed (Count)
system.cpu0.fetch.branches                    5828312                       # Number of branches that fetch encountered (Count)
system.cpu0.fetch.predictedBranches           2723721                       # Number of branches that fetch has predicted taken (Count)
system.cpu0.fetch.cycles                    261151396                       # Number of cycles fetch has run and was not squashing or blocked (Cycle)
system.cpu0.fetch.squashCycles                 528262                       # Number of cycles fetch has spent squashing (Cycle)
system.cpu0.fetch.miscStallCycles                2206                       # Number of cycles fetch has spent waiting on interrupts, or bad addresses, or out of MSHRs (Cycle)
system.cpu0.fetch.pendingTrapStallCycles        14732                       # Number of stall cycles due to pending traps (Cycle)
system.cpu0.fetch.icacheWaitRetryStallCycles          211                       # Number of stall cycles due to full MSHR (Cycle)
system.cpu0.fetch.cacheLines                  5326191                       # Number of cache lines fetched (Count)
system.cpu0.fetch.icacheSquashes                 3362                       # Number of outstanding Icache misses that were squashed (Count)
system.cpu0.fetch.nisnDist::samples         266956594                       # Number of instructions fetched each cycle (Total) (Count)
system.cpu0.fetch.nisnDist::mean             0.335964                       # Number of instructions fetched each cycle (Total) (Count)
system.cpu0.fetch.nisnDist::stdev            1.518291                       # Number of instructions fetched each cycle (Total) (Count)
system.cpu0.fetch.nisnDist::underflows              0      0.00%      0.00% # Number of instructions fetched each cycle (Total) (Count)
system.cpu0.fetch.nisnDist::0               253063425     94.80%     94.80% # Number of instructions fetched each cycle (Total) (Count)
system.cpu0.fetch.nisnDist::1                  404483      0.15%     94.95% # Number of instructions fetched each cycle (Total) (Count)
system.cpu0.fetch.nisnDist::2                  875702      0.33%     95.28% # Number of instructions fetched each cycle (Total) (Count)
system.cpu0.fetch.nisnDist::3                 1128576      0.42%     95.70% # Number of instructions fetched each cycle (Total) (Count)
system.cpu0.fetch.nisnDist::4                  579799      0.22%     95.92% # Number of instructions fetched each cycle (Total) (Count)
system.cpu0.fetch.nisnDist::5                  381462      0.14%     96.06% # Number of instructions fetched each cycle (Total) (Count)
system.cpu0.fetch.nisnDist::6                 1572489      0.59%     96.65% # Number of instructions fetched each cycle (Total) (Count)
system.cpu0.fetch.nisnDist::7                 1120495      0.42%     97.07% # Number of instructions fetched each cycle (Total) (Count)
system.cpu0.fetch.nisnDist::8                 7830163      2.93%    100.00% # Number of instructions fetched each cycle (Total) (Count)
system.cpu0.fetch.nisnDist::overflows               0      0.00%    100.00% # Number of instructions fetched each cycle (Total) (Count)
system.cpu0.fetch.nisnDist::min_value               0                       # Number of instructions fetched each cycle (Total) (Count)
system.cpu0.fetch.nisnDist::max_value               8                       # Number of instructions fetched each cycle (Total) (Count)
system.cpu0.fetch.nisnDist::total           266956594                       # Number of instructions fetched each cycle (Total) (Count)
system.cpu0.fetch.branchRate                 0.021791                       # Number of branch fetches per cycle (Ratio)
system.cpu0.fetch.rate                       0.163464                       # Number of inst fetches per cycle ((Count/Cycle))
system.cpu0.icache.demandHits::cpu0.inst      5322687                       # number of demand (read+write) hits (Count)
system.cpu0.icache.demandHits::total          5322687                       # number of demand (read+write) hits (Count)
system.cpu0.icache.overallHits::cpu0.inst      5322687                       # number of overall hits (Count)
system.cpu0.icache.overallHits::total         5322687                       # number of overall hits (Count)
system.cpu0.icache.demandMisses::cpu0.inst         3504                       # number of demand (read+write) misses (Count)
system.cpu0.icache.demandMisses::total           3504                       # number of demand (read+write) misses (Count)
system.cpu0.icache.overallMisses::cpu0.inst         3504                       # number of overall misses (Count)
system.cpu0.icache.overallMisses::total          3504                       # number of overall misses (Count)
system.cpu0.icache.demandMissLatency::cpu0.inst    272454748                       # number of demand (read+write) miss ticks (Tick)
system.cpu0.icache.demandMissLatency::total    272454748                       # number of demand (read+write) miss ticks (Tick)
system.cpu0.icache.overallMissLatency::cpu0.inst    272454748                       # number of overall miss ticks (Tick)
system.cpu0.icache.overallMissLatency::total    272454748                       # number of overall miss ticks (Tick)
system.cpu0.icache.demandAccesses::cpu0.inst      5326191                       # number of demand (read+write) accesses (Count)
system.cpu0.icache.demandAccesses::total      5326191                       # number of demand (read+write) accesses (Count)
system.cpu0.icache.overallAccesses::cpu0.inst      5326191                       # number of overall (read+write) accesses (Count)
system.cpu0.icache.overallAccesses::total      5326191                       # number of overall (read+write) accesses (Count)
system.cpu0.icache.demandMissRate::cpu0.inst     0.000658                       # miss rate for demand accesses (Ratio)
system.cpu0.icache.demandMissRate::total     0.000658                       # miss rate for demand accesses (Ratio)
system.cpu0.icache.overallMissRate::cpu0.inst     0.000658                       # miss rate for overall accesses (Ratio)
system.cpu0.icache.overallMissRate::total     0.000658                       # miss rate for overall accesses (Ratio)
system.cpu0.icache.demandAvgMissLatency::cpu0.inst 77755.350457                       # average overall miss latency in ticks ((Tick/Count))
system.cpu0.icache.demandAvgMissLatency::total 77755.350457                       # average overall miss latency in ticks ((Tick/Count))
system.cpu0.icache.overallAvgMissLatency::cpu0.inst 77755.350457                       # average overall miss latency ((Tick/Count))
system.cpu0.icache.overallAvgMissLatency::total 77755.350457                       # average overall miss latency ((Tick/Count))
system.cpu0.icache.blockedCycles::no_mshrs         1941                       # number of cycles access was blocked (Cycle)
system.cpu0.icache.blockedCycles::no_targets            0                       # number of cycles access was blocked (Cycle)
system.cpu0.icache.blockedCauses::no_mshrs           14                       # number of times access was blocked (Count)
system.cpu0.icache.blockedCauses::no_targets            0                       # number of times access was blocked (Count)
system.cpu0.icache.avgBlocked::no_mshrs    138.642857                       # average number of cycles each access was blocked ((Cycle/Count))
system.cpu0.icache.avgBlocked::no_targets          nan                       # average number of cycles each access was blocked ((Cycle/Count))
system.cpu0.icache.writebacks::writebacks         2221                       # number of writebacks (Count)
system.cpu0.icache.writebacks::total             2221                       # number of writebacks (Count)
system.cpu0.icache.demandMshrHits::cpu0.inst          757                       # number of demand (read+write) MSHR hits (Count)
system.cpu0.icache.demandMshrHits::total          757                       # number of demand (read+write) MSHR hits (Count)
system.cpu0.icache.overallMshrHits::cpu0.inst          757                       # number of overall MSHR hits (Count)
system.cpu0.icache.overallMshrHits::total          757                       # number of overall MSHR hits (Count)
system.cpu0.icache.demandMshrMisses::cpu0.inst         2747                       # number of demand (read+write) MSHR misses (Count)
system.cpu0.icache.demandMshrMisses::total         2747                       # number of demand (read+write) MSHR misses (Count)
system.cpu0.icache.overallMshrMisses::cpu0.inst         2747                       # number of overall MSHR misses (Count)
system.cpu0.icache.overallMshrMisses::total         2747                       # number of overall MSHR misses (Count)
system.cpu0.icache.demandMshrMissLatency::cpu0.inst    220497999                       # number of demand (read+write) MSHR miss ticks (Tick)
system.cpu0.icache.demandMshrMissLatency::total    220497999                       # number of demand (read+write) MSHR miss ticks (Tick)
system.cpu0.icache.overallMshrMissLatency::cpu0.inst    220497999                       # number of overall MSHR miss ticks (Tick)
system.cpu0.icache.overallMshrMissLatency::total    220497999                       # number of overall MSHR miss ticks (Tick)
system.cpu0.icache.demandMshrMissRate::cpu0.inst     0.000516                       # mshr miss ratio for demand accesses (Ratio)
system.cpu0.icache.demandMshrMissRate::total     0.000516                       # mshr miss ratio for demand accesses (Ratio)
system.cpu0.icache.overallMshrMissRate::cpu0.inst     0.000516                       # mshr miss ratio for overall accesses (Ratio)
system.cpu0.icache.overallMshrMissRate::total     0.000516                       # mshr miss ratio for overall accesses (Ratio)
system.cpu0.icache.demandAvgMshrMissLatency::cpu0.inst 80268.656352                       # average overall mshr miss latency ((Tick/Count))
system.cpu0.icache.demandAvgMshrMissLatency::total 80268.656352                       # average overall mshr miss latency ((Tick/Count))
system.cpu0.icache.overallAvgMshrMissLatency::cpu0.inst 80268.656352                       # average overall mshr miss latency ((Tick/Count))
system.cpu0.icache.overallAvgMshrMissLatency::total 80268.656352                       # average overall mshr miss latency ((Tick/Count))
system.cpu0.icache.replacements                  2221                       # number of replacements (Count)
system.cpu0.icache.ReadReq.hits::cpu0.inst      5322687                       # number of ReadReq hits (Count)
system.cpu0.icache.ReadReq.hits::total        5322687                       # number of ReadReq hits (Count)
system.cpu0.icache.ReadReq.misses::cpu0.inst         3504                       # number of ReadReq misses (Count)
system.cpu0.icache.ReadReq.misses::total         3504                       # number of ReadReq misses (Count)
system.cpu0.icache.ReadReq.missLatency::cpu0.inst    272454748                       # number of ReadReq miss ticks (Tick)
system.cpu0.icache.ReadReq.missLatency::total    272454748                       # number of ReadReq miss ticks (Tick)
system.cpu0.icache.ReadReq.accesses::cpu0.inst      5326191                       # number of ReadReq accesses(hits+misses) (Count)
system.cpu0.icache.ReadReq.accesses::total      5326191                       # number of ReadReq accesses(hits+misses) (Count)
system.cpu0.icache.ReadReq.missRate::cpu0.inst     0.000658                       # miss rate for ReadReq accesses (Ratio)
system.cpu0.icache.ReadReq.missRate::total     0.000658                       # miss rate for ReadReq accesses (Ratio)
system.cpu0.icache.ReadReq.avgMissLatency::cpu0.inst 77755.350457                       # average ReadReq miss latency ((Tick/Count))
system.cpu0.icache.ReadReq.avgMissLatency::total 77755.350457                       # average ReadReq miss latency ((Tick/Count))
system.cpu0.icache.ReadReq.mshrHits::cpu0.inst          757                       # number of ReadReq MSHR hits (Count)
system.cpu0.icache.ReadReq.mshrHits::total          757                       # number of ReadReq MSHR hits (Count)
system.cpu0.icache.ReadReq.mshrMisses::cpu0.inst         2747                       # number of ReadReq MSHR misses (Count)
system.cpu0.icache.ReadReq.mshrMisses::total         2747                       # number of ReadReq MSHR misses (Count)
system.cpu0.icache.ReadReq.mshrMissLatency::cpu0.inst    220497999                       # number of ReadReq MSHR miss ticks (Tick)
system.cpu0.icache.ReadReq.mshrMissLatency::total    220497999                       # number of ReadReq MSHR miss ticks (Tick)
system.cpu0.icache.ReadReq.mshrMissRate::cpu0.inst     0.000516                       # mshr miss rate for ReadReq accesses (Ratio)
system.cpu0.icache.ReadReq.mshrMissRate::total     0.000516                       # mshr miss rate for ReadReq accesses (Ratio)
system.cpu0.icache.ReadReq.avgMshrMissLatency::cpu0.inst 80268.656352                       # average ReadReq mshr miss latency ((Tick/Count))
system.cpu0.icache.ReadReq.avgMshrMissLatency::total 80268.656352                       # average ReadReq mshr miss latency ((Tick/Count))
system.cpu0.icache.power_state.pwrStateResidencyTicks::UNDEFINED  66866901500                       # Cumulative time (in ticks) in various power states (Tick)
system.cpu0.icache.tags.tagsInUse          509.211646                       # Average ticks per tags in use ((Tick/Count))
system.cpu0.icache.tags.totalRefs             5325433                       # Total number of references to valid blocks. (Count)
system.cpu0.icache.tags.sampledRefs              2746                       # Sample count of references to valid blocks. (Count)
system.cpu0.icache.tags.avgRefs           1939.341952                       # Average number of references to valid blocks. ((Count/Count))
system.cpu0.icache.tags.warmupTick              80000                       # The tick when the warmup percentage was hit. (Tick)
system.cpu0.icache.tags.occupancies::cpu0.inst   509.211646                       # Average occupied blocks per tick, per requestor ((Count/Tick))
system.cpu0.icache.tags.avgOccs::cpu0.inst     0.994554                       # Average percentage of cache occupancy ((Ratio/Tick))
system.cpu0.icache.tags.avgOccs::total       0.994554                       # Average percentage of cache occupancy ((Ratio/Tick))
system.cpu0.icache.tags.occupanciesTaskId::1024          512                       # Occupied blocks per task id (Count)
system.cpu0.icache.tags.ageTaskId_1024::0           98                       # Occupied blocks per task id, per block age (Count)
system.cpu0.icache.tags.ageTaskId_1024::1           81                       # Occupied blocks per task id, per block age (Count)
system.cpu0.icache.tags.ageTaskId_1024::4          333                       # Occupied blocks per task id, per block age (Count)
system.cpu0.icache.tags.ratioOccsTaskId::1024            1                       # Ratio of occupied blocks and all blocks, per task id (Ratio)
system.cpu0.icache.tags.tagAccesses          10655128                       # Number of tag accesses (Count)
system.cpu0.icache.tags.dataAccesses         10655128                       # Number of data accesses (Count)
system.cpu0.icache.tags.power_state.pwrStateResidencyTicks::UNDEFINED  66866901500                       # Cumulative time (in ticks) in various power states (Tick)
system.cpu0.iew.idleCycles                          0                       # Number of cycles IEW is idle (Cycle)
system.cpu0.iew.squashCycles                   262793                       # Number of cycles IEW is squashing (Cycle)
system.cpu0.iew.blockCycles                  40614003                       # Number of cycles IEW is blocking (Cycle)
system.cpu0.iew.unblockCycles                16541152                       # Number of cycles IEW is unblocking (Cycle)
system.cpu0.iew.dispatchedInsts              76974268                       # Number of instructions dispatched to IQ (Count)
system.cpu0.iew.dispSquashedInsts                1035                       # Number of squashed instructions skipped by dispatch (Count)
system.cpu0.iew.dispLoadInsts                15729235                       # Number of dispatched load instructions (Count)
system.cpu0.iew.dispStoreInsts               10823001                       # Number of dispatched store instructions (Count)
system.cpu0.iew.dispNonSpecInsts                  580                       # Number of dispatched non-speculative instructions (Count)
system.cpu0.iew.iqFullEvents                    39458                       # Number of times the IQ has become full, causing a stall (Count)
system.cpu0.iew.lsqFullEvents                16400430                       # Number of times the LSQ has become full, causing a stall (Count)
system.cpu0.iew.memOrderViolationEvents           337                       # Number of memory order violations (Count)
system.cpu0.iew.predictedTakenIncorrect          2754                       # Number of branches that were predicted taken incorrectly (Count)
system.cpu0.iew.predictedNotTakenIncorrect         8556                       # Number of branches that were predicted not taken incorrectly (Count)
system.cpu0.iew.branchMispredicts               11310                       # Number of branch mispredicts detected at execute (Count)
system.cpu0.iew.instsToCommit                76804891                       # Cumulative count of insts sent to commit (Count)
[...]
system.membus.pktCount_system.cpu1.dcache.mem_side_port::total      2062799                       # Packet count per connected requestor and responder (Count)
system.membus.pktCount_system.cpu2.icache.mem_side_port::system.mem_ctrls.port          288                       # Packet count per connected requestor and responder (Count)
system.membus.pktCount_system.cpu2.icache.mem_side_port::total          288                       # Packet count per connected requestor and responder (Count)
system.membus.pktCount_system.cpu2.dcache.mem_side_port::system.mem_ctrls.port      2062716                       # Packet count per connected requestor and responder (Count)
system.membus.pktCount_system.cpu2.dcache.mem_side_port::total      2062716                       # Packet count per connected requestor and responder (Count)
system.membus.pktCount_system.cpu3.icache.mem_side_port::system.mem_ctrls.port          271                       # Packet count per connected requestor and responder (Count)
system.membus.pktCount_system.cpu3.icache.mem_side_port::total          271                       # Packet count per connected requestor and responder (Count)
system.membus.pktCount_system.cpu3.dcache.mem_side_port::system.mem_ctrls.port      2062679                       # Packet count per connected requestor and responder (Count)
system.membus.pktCount_system.cpu3.dcache.mem_side_port::total      2062679                       # Packet count per connected requestor and responder (Count)
system.membus.pktCount_system.cpu4.icache.mem_side_port::system.mem_ctrls.port          166                       # Packet count per connected requestor and responder (Count)
system.membus.pktCount_system.cpu4.icache.mem_side_port::total          166                       # Packet count per connected requestor and responder (Count)
system.membus.pktCount_system.cpu4.dcache.mem_side_port::system.mem_ctrls.port      2062448                       # Packet count per connected requestor and responder (Count)
system.membus.pktCount_system.cpu4.dcache.mem_side_port::total      2062448                       # Packet count per connected requestor and responder (Count)
system.membus.pktCount_system.cpu5.icache.mem_side_port::system.mem_ctrls.port          157                       # Packet count per connected requestor and responder (Count)
system.membus.pktCount_system.cpu5.icache.mem_side_port::total          157                       # Packet count per connected requestor and responder (Count)
system.membus.pktCount_system.cpu5.dcache.mem_side_port::system.mem_ctrls.port      2062441                       # Packet count per connected requestor and responder (Count)
system.membus.pktCount_system.cpu5.dcache.mem_side_port::total      2062441                       # Packet count per connected requestor and responder (Count)
system.membus.pktCount_system.cpu6.icache.mem_side_port::system.mem_ctrls.port          156                       # Packet count per connected requestor and responder (Count)
system.membus.pktCount_system.cpu6.icache.mem_side_port::total          156                       # Packet count per connected requestor and responder (Count)
system.membus.pktCount_system.cpu6.dcache.mem_side_port::system.mem_ctrls.port      2062437                       # Packet count per connected requestor and responder (Count)
system.membus.pktCount_system.cpu6.dcache.mem_side_port::total      2062437                       # Packet count per connected requestor and responder (Count)
system.membus.pktCount_system.cpu7.icache.mem_side_port::system.mem_ctrls.port          161                       # Packet count per connected requestor and responder (Count)
system.membus.pktCount_system.cpu7.icache.mem_side_port::total          161                       # Packet count per connected requestor and responder (Count)
system.membus.pktCount_system.cpu7.dcache.mem_side_port::system.mem_ctrls.port      2062455                       # Packet count per connected requestor and responder (Count)
system.membus.pktCount_system.cpu7.dcache.mem_side_port::total      2062455                       # Packet count per connected requestor and responder (Count)
system.membus.pktCount::total                17651531                       # Packet count per connected requestor and responder (Count)
system.membus.pktSize_system.cpu0.icache.mem_side_port::system.mem_ctrls.port       317312                       # Cumulative packet size per connected requestor and responder (Byte)
system.membus.pktSize_system.cpu0.icache.mem_side_port::total       317312                       # Cumulative packet size per connected requestor and responder (Byte)
system.membus.pktSize_system.cpu0.dcache.mem_side_port::system.mem_ctrls.port     88482560                       # Cumulative packet size per connected requestor and responder (Byte)
system.membus.pktSize_system.cpu0.dcache.mem_side_port::total     88482560                       # Cumulative packet size per connected requestor and responder (Byte)
system.membus.pktSize_system.cpu1.icache.mem_side_port::system.mem_ctrls.port         9472                       # Cumulative packet size per connected requestor and responder (Byte)
system.membus.pktSize_system.cpu1.icache.mem_side_port::total         9472                       # Cumulative packet size per connected requestor and responder (Byte)
system.membus.pktSize_system.cpu1.dcache.mem_side_port::system.mem_ctrls.port     64019648                       # Cumulative packet size per connected requestor and responder (Byte)
system.membus.pktSize_system.cpu1.dcache.mem_side_port::total     64019648                       # Cumulative packet size per connected requestor and responder (Byte)
system.membus.pktSize_system.cpu2.icache.mem_side_port::system.mem_ctrls.port         9216                       # Cumulative packet size per connected requestor and responder (Byte)
system.membus.pktSize_system.cpu2.icache.mem_side_port::total         9216                       # Cumulative packet size per connected requestor and responder (Byte)
system.membus.pktSize_system.cpu2.dcache.mem_side_port::system.mem_ctrls.port     64017408                       # Cumulative packet size per connected requestor and responder (Byte)
system.membus.pktSize_system.cpu2.dcache.mem_side_port::total     64017408                       # Cumulative packet size per connected requestor and responder (Byte)
system.membus.pktSize_system.cpu3.icache.mem_side_port::system.mem_ctrls.port         8640                       # Cumulative packet size per connected requestor and responder (Byte)
system.membus.pktSize_system.cpu3.icache.mem_side_port::total         8640                       # Cumulative packet size per connected requestor and responder (Byte)
system.membus.pktSize_system.cpu3.dcache.mem_side_port::system.mem_ctrls.port     64016320                       # Cumulative packet size per connected requestor and responder (Byte)
system.membus.pktSize_system.cpu3.dcache.mem_side_port::total     64016320                       # Cumulative packet size per connected requestor and responder (Byte)
system.membus.pktSize_system.cpu4.icache.mem_side_port::system.mem_ctrls.port         5248                       # Cumulative packet size per connected requestor and responder (Byte)
system.membus.pktSize_system.cpu4.icache.mem_side_port::total         5248                       # Cumulative packet size per connected requestor and responder (Byte)
system.membus.pktSize_system.cpu4.dcache.mem_side_port::system.mem_ctrls.port     64010368                       # Cumulative packet size per connected requestor and responder (Byte)
system.membus.pktSize_system.cpu4.dcache.mem_side_port::total     64010368                       # Cumulative packet size per connected requestor and responder (Byte)
system.membus.pktSize_system.cpu5.icache.mem_side_port::system.mem_ctrls.port         4928                       # Cumulative packet size per connected requestor and responder (Byte)
system.membus.pktSize_system.cpu5.icache.mem_side_port::total         4928                       # Cumulative packet size per connected requestor and responder (Byte)
system.membus.pktSize_system.cpu5.dcache.mem_side_port::system.mem_ctrls.port     64009920                       # Cumulative packet size per connected requestor and responder (Byte)
system.membus.pktSize_system.cpu5.dcache.mem_side_port::total     64009920                       # Cumulative packet size per connected requestor and responder (Byte)
system.membus.pktSize_system.cpu6.icache.mem_side_port::system.mem_ctrls.port         4928                       # Cumulative packet size per connected requestor and responder (Byte)
system.membus.pktSize_system.cpu6.icache.mem_side_port::total         4928                       # Cumulative packet size per connected requestor and responder (Byte)
system.membus.pktSize_system.cpu6.dcache.mem_side_port::system.mem_ctrls.port     64010112                       # Cumulative packet size per connected requestor and responder (Byte)
system.membus.pktSize_system.cpu6.dcache.mem_side_port::total     64010112                       # Cumulative packet size per connected requestor and responder (Byte)
system.membus.pktSize_system.cpu7.icache.mem_side_port::system.mem_ctrls.port         5056                       # Cumulative packet size per connected requestor and responder (Byte)
system.membus.pktSize_system.cpu7.icache.mem_side_port::total         5056                       # Cumulative packet size per connected requestor and responder (Byte)
system.membus.pktSize_system.cpu7.dcache.mem_side_port::system.mem_ctrls.port     64010432                       # Cumulative packet size per connected requestor and responder (Byte)
system.membus.pktSize_system.cpu7.dcache.mem_side_port::total     64010432                       # Cumulative packet size per connected requestor and responder (Byte)
system.membus.pktSize::total                536941568                       # Cumulative packet size per connected requestor and responder (Byte)
system.membus.snoops                             2653                       # Total snoops (Count)
system.membus.snoopTraffic                     158016                       # Total snoop traffic (Byte)
system.membus.snoopFanout::samples            5888445                       # Request fanout histogram (Count)
system.membus.snoopFanout::mean              0.003436                       # Request fanout histogram (Count)
system.membus.snoopFanout::stdev             0.110789                       # Request fanout histogram (Count)
system.membus.snoopFanout::underflows               0      0.00%      0.00% # Request fanout histogram (Count)
system.membus.snoopFanout::0                  5877056     99.81%     99.81% # Request fanout histogram (Count)
system.membus.snoopFanout::1                     9023      0.15%     99.96% # Request fanout histogram (Count)
system.membus.snoopFanout::2                      464      0.01%     99.97% # Request fanout histogram (Count)
system.membus.snoopFanout::3                      400      0.01%     99.97% # Request fanout histogram (Count)
system.membus.snoopFanout::4                      262      0.00%     99.98% # Request fanout histogram (Count)
system.membus.snoopFanout::5                      254      0.00%     99.98% # Request fanout histogram (Count)
system.membus.snoopFanout::6                      286      0.00%     99.99% # Request fanout histogram (Count)
system.membus.snoopFanout::7                      653      0.01%    100.00% # Request fanout histogram (Count)
system.membus.snoopFanout::8                       18      0.00%    100.00% # Request fanout histogram (Count)
system.membus.snoopFanout::9                        5      0.00%    100.00% # Request fanout histogram (Count)
system.membus.snoopFanout::10                       5      0.00%    100.00% # Request fanout histogram (Count)
system.membus.snoopFanout::11                       4      0.00%    100.00% # Request fanout histogram (Count)
system.membus.snoopFanout::12                       5      0.00%    100.00% # Request fanout histogram (Count)
system.membus.snoopFanout::13                       7      0.00%    100.00% # Request fanout histogram (Count)
system.membus.snoopFanout::14                       3      0.00%    100.00% # Request fanout histogram (Count)
system.membus.snoopFanout::15                       0      0.00%    100.00% # Request fanout histogram (Count)
system.membus.snoopFanout::16                       0      0.00%    100.00% # Request fanout histogram (Count)
system.membus.snoopFanout::17                       0      0.00%    100.00% # Request fanout histogram (Count)
system.membus.snoopFanout::18                       0      0.00%    100.00% # Request fanout histogram (Count)
system.membus.snoopFanout::19                       0      0.00%    100.00% # Request fanout histogram (Count)
system.membus.snoopFanout::20                       0      0.00%    100.00% # Request fanout histogram (Count)
system.membus.snoopFanout::21                       0      0.00%    100.00% # Request fanout histogram (Count)
system.membus.snoopFanout::22                       0      0.00%    100.00% # Request fanout histogram (Count)
system.membus.snoopFanout::23                       0      0.00%    100.00% # Request fanout histogram (Count)
system.membus.snoopFanout::24                       0      0.00%    100.00% # Request fanout histogram (Count)
system.membus.snoopFanout::25                       0      0.00%    100.00% # Request fanout histogram (Count)
system.membus.snoopFanout::26                       0      0.00%    100.00% # Request fanout histogram (Count)
system.membus.snoopFanout::27                       0      0.00%    100.00% # Request fanout histogram (Count)
system.membus.snoopFanout::28                       0      0.00%    100.00% # Request fanout histogram (Count)
system.membus.snoopFanout::29                       0      0.00%    100.00% # Request fanout histogram (Count)
system.membus.snoopFanout::30                       0      0.00%    100.00% # Request fanout histogram (Count)
system.membus.snoopFanout::31                       0      0.00%    100.00% # Request fanout histogram (Count)
system.membus.snoopFanout::32                       0      0.00%    100.00% # Request fanout histogram (Count)
system.membus.snoopFanout::overflows                0      0.00%    100.00% # Request fanout histogram (Count)
system.membus.snoopFanout::min_value                0                       # Request fanout histogram (Count)
system.membus.snoopFanout::max_value               14                       # Request fanout histogram (Count)
system.membus.snoopFanout::total              5888445                       # Request fanout histogram (Count)
system.membus.power_state.pwrStateResidencyTicks::UNDEFINED  66866901500                       # Cumulative time (in ticks) in various power states (Tick)
system.membus.reqLayer16.occupancy        23463275247                       # Layer occupancy (ticks) (Tick)
system.membus.reqLayer16.utilization              0.4                       # Layer utilization (Ratio)
system.membus.respLayer1.occupancy           13994750                       # Layer occupancy (ticks) (Tick)
system.membus.respLayer1.utilization              0.0                       # Layer utilization (Ratio)
system.membus.respLayer11.occupancy            776000                       # Layer occupancy (ticks) (Tick)
system.membus.respLayer11.utilization             0.0                       # Layer utilization (Ratio)
system.membus.respLayer12.occupancy        3504905626                       # Layer occupancy (ticks) (Tick)
system.membus.respLayer12.utilization             0.1                       # Layer utilization (Ratio)
system.membus.respLayer16.occupancy            733000                       # Layer occupancy (ticks) (Tick)
system.membus.respLayer16.utilization             0.0                       # Layer utilization (Ratio)
system.membus.respLayer17.occupancy        3505316136                       # Layer occupancy (ticks) (Tick)
system.membus.respLayer17.utilization             0.1                       # Layer utilization (Ratio)
system.membus.respLayer2.occupancy         5416873830                       # Layer occupancy (ticks) (Tick)
system.membus.respLayer2.utilization              0.1                       # Layer utilization (Ratio)
system.membus.respLayer21.occupancy            453250                       # Layer occupancy (ticks) (Tick)
system.membus.respLayer21.utilization             0.0                       # Layer utilization (Ratio)
system.membus.respLayer22.occupancy        3505107862                       # Layer occupancy (ticks) (Tick)
system.membus.respLayer22.utilization             0.1                       # Layer utilization (Ratio)
system.membus.respLayer26.occupancy            433500                       # Layer occupancy (ticks) (Tick)
system.membus.respLayer26.utilization             0.0                       # Layer utilization (Ratio)
system.membus.respLayer27.occupancy        3506622288                       # Layer occupancy (ticks) (Tick)
system.membus.respLayer27.utilization             0.1                       # Layer utilization (Ratio)
system.membus.respLayer31.occupancy            430000                       # Layer occupancy (ticks) (Tick)
system.membus.respLayer31.utilization             0.0                       # Layer utilization (Ratio)
system.membus.respLayer32.occupancy        3504418865                       # Layer occupancy (ticks) (Tick)
system.membus.respLayer32.utilization             0.1                       # Layer utilization (Ratio)
system.membus.respLayer36.occupancy            441749                       # Layer occupancy (ticks) (Tick)
system.membus.respLayer36.utilization             0.0                       # Layer utilization (Ratio)
system.membus.respLayer37.occupancy        3502982626                       # Layer occupancy (ticks) (Tick)
system.membus.respLayer37.utilization             0.1                       # Layer utilization (Ratio)
system.membus.respLayer6.occupancy             792250                       # Layer occupancy (ticks) (Tick)
system.membus.respLayer6.utilization              0.0                       # Layer utilization (Ratio)
system.membus.respLayer7.occupancy         3507850033                       # Layer occupancy (ticks) (Tick)
system.membus.respLayer7.utilization              0.1                       # Layer utilization (Ratio)
system.membus.snoop_filter.totRequests       11781374                       # Total number of requests made to the snoop filter. (Count)
system.membus.snoop_filter.hitSingleRequests      5893258                       # Number of requests hitting in the snoop filter with a single holder of the requested data. (Count)
system.membus.snoop_filter.hitMultiRequests        11257                       # Number of requests hitting in the snoop filter with multiple (>1) holders of the requested data. (Count)
system.membus.snoop_filter.totSnoops                0                       # Total number of snoops made to the snoop filter. (Count)
system.membus.snoop_filter.hitSingleSnoops            0                       # Number of snoops hitting in the snoop filter with a single holder of the requested data. (Count)
system.membus.snoop_filter.hitMultiSnoops            0                       # Number of snoops hitting in the snoop filter with multiple (>1) holders of the requested data. (Count)
system.voltage_domain.voltage                       1                       # Voltage in Volts (Volt)
system.workload.inst.arm                            0                       # number of arm instructions executed (Count)
system.workload.inst.quiesce                        0                       # number of quiesce instructions executed (Count)

---------- End Simulation Statistics   ----------
