
---------- Begin Simulation Statistics ----------
simSeconds                                   0.047416                       # Number of seconds simulated (Second)
simTicks                                  47415580500                       # Number of ticks simulated (Tick)
finalTick                                 47415580500                       # Number of ticks from beginning of simulation (restored from checkpoints and never reset) (Tick)
simFreq                                  1000000000000                       # The number of ticks per simulated second ((Tick/Second))
hostSeconds                                   1515.55                       # Real time elapsed on the host (Second)
hostTickRate                                 31286096                       # The number of ticks simulated per host second (ticks/s) ((Tick/Second))
hostMemory                                    7907536                       # Number of bytes of host memory used (Byte)
simInsts                                    125062477                       # Number of instructions simulated (Count)
simOps                                      223316713                       # Number of ops (including micro ops) simulated (Count)
hostInstRate                                    82520                       # Simulator instruction rate (inst/s) ((Count/Second))
hostOpRate                                     147350                       # Simulator op (including micro ops) rate (op/s) ((Count/Second))
system.clk_domain.clock                          1000                       # Clock period in ticks (Tick)
system.cpu0.numCycles                       189662323                       # Number of cpu cycles simulated (Cycle)
system.cpu0.numWorkItemsStarted                     0                       # Number of work items this cpu started (Count)
system.cpu0.numWorkItemsCompleted                   0                       # Number of work items this cpu completed (Count)
system.cpu0.instsAdded                       77593789                       # Number of instructions added to the IQ (excludes non-spec) (Count)
system.cpu0.nonSpecInstsAdded                    1315                       # Number of non-speculative instructions added to the IQ (Count)
system.cpu0.instsIssued                      77536930                       # Number of instructions issued (Count)
system.cpu0.squashedInstsIssued                  2091                       # Number of squashed instructions issued (Count)
system.cpu0.squashedInstsExamined            24495725                       # Number of squashed instructions iterated over during squash; mainly for profiling (Count)
system.cpu0.squashedOperandsExamined           782475                       # Number of squashed operands that are examined and possibly removed from graph (Count)
system.cpu0.squashedNonSpecRemoved                411                       # Number of squashed non-spec instructions that were removed (Count)
system.cpu0.numIssuedDist::samples          189215416                       # Number of insts issued each cycle (Count)
system.cpu0.numIssuedDist::mean              0.409781                       # Number of insts issued each cycle (Count)
system.cpu0.numIssuedDist::stdev             1.348358                       # Number of insts issued each cycle (Count)
system.cpu0.numIssuedDist::underflows               0      0.00%      0.00% # Number of insts issued each cycle (Count)
system.cpu0.numIssuedDist::0                166516223     88.00%     88.00% # Number of insts issued each cycle (Count)
system.cpu0.numIssuedDist::1                  6086519      3.22%     91.22% # Number of insts issued each cycle (Count)
system.cpu0.numIssuedDist::2                  4236972      2.24%     93.46% # Number of insts issued each cycle (Count)
system.cpu0.numIssuedDist::3                  2347875      1.24%     94.70% # Number of insts issued each cycle (Count)
system.cpu0.numIssuedDist::4                  3048407      1.61%     96.31% # Number of insts issued each cycle (Count)
system.cpu0.numIssuedDist::5                  2220656      1.17%     97.49% # Number of insts issued each cycle (Count)
system.cpu0.numIssuedDist::6                  2137644      1.13%     98.61% # Number of insts issued each cycle (Count)
system.cpu0.numIssuedDist::7                  1158890      0.61%     99.23% # Number of insts issued each cycle (Count)
system.cpu0.numIssuedDist::8                  1462230      0.77%    100.00% # Number of insts issued each cycle (Count)
system.cpu0.numIssuedDist::overflows                0      0.00%    100.00% # Number of insts issued each cycle (Count)
system.cpu0.numIssuedDist::min_value                0                       # Number of insts issued each cycle (Count)
system.cpu0.numIssuedDist::max_value                8                       # Number of insts issued each cycle (Count)
system.cpu0.numIssuedDist::total            189215416                       # Number of insts issued each cycle (Count)
system.cpu0.statFuBusy::No_OpClass                  0      0.00%      0.00% # attempts to use FU when none available (Count)
system.cpu0.statFuBusy::IntAlu                  47980      1.13%      1.13% # attempts to use FU when none available (Count)
system.cpu0.statFuBusy::IntMult                     0      0.00%      1.13% # attempts to use FU when none available (Count)
system.cpu0.statFuBusy::IntDiv                      0      0.00%      1.13% # attempts to use FU when none available (Count)
system.cpu0.statFuBusy::FloatAdd                    0      0.00%      1.13% # attempts to use FU when none available (Count)
system.cpu0.statFuBusy::FloatCmp                    0      0.00%      1.13% # attempts to use FU when none available (Count)
system.cpu0.statFuBusy::FloatCvt                    0      0.00%      1.13% # attempts to use FU when none available (Count)
system.cpu0.statFuBusy::FloatMult                   0      0.00%      1.13% # attempts to use FU when none available (Count)
system.cpu0.statFuBusy::FloatMultAcc                0      0.00%      1.13% # attempts to use FU when none available (Count)
system.cpu0.statFuBusy::FloatDiv                    0      0.00%      1.13% # attempts to use FU when none available (Count)
system.cpu0.statFuBusy::FloatMisc                   0      0.00%      1.13% # attempts to use FU when none available (Count)
system.cpu0.statFuBusy::FloatSqrt                   0      0.00%      1.13% # attempts to use FU when none available (Count)
system.cpu0.statFuBusy::SimdAdd                     3      0.00%      1.13% # attempts to use FU when none available (Count)
system.cpu0.statFuBusy::SimdAddAcc                  0      0.00%      1.13% # attempts to use FU when none available (Count)
system.cpu0.statFuBusy::SimdAlu                   110      0.00%      1.14% # attempts to use FU when none available (Count)
system.cpu0.statFuBusy::SimdCmp                     0      0.00%      1.14% # attempts to use FU when none available (Count)
system.cpu0.statFuBusy::SimdCvt                    82      0.00%      1.14% # attempts to use FU when none available (Count)
system.cpu0.statFuBusy::SimdMisc                   50      0.00%      1.14% # attempts to use FU when none available (Count)
system.cpu0.statFuBusy::SimdMult                    0      0.00%      1.14% # attempts to use FU when none available (Count)
system.cpu0.statFuBusy::SimdMultAcc                 0      0.00%      1.14% # attempts to use FU when none available (Count)
system.cpu0.statFuBusy::SimdShift                   9      0.00%      1.14% # attempts to use FU when none available (Count)
system.cpu0.statFuBusy::SimdShiftAcc                0      0.00%      1.14% # attempts to use FU when none available (Count)
system.cpu0.statFuBusy::SimdDiv                     0      0.00%      1.14% # attempts to use FU when none available (Count)
system.cpu0.statFuBusy::SimdSqrt                    0      0.00%      1.14% # attempts to use FU when none available (Count)
system.cpu0.statFuBusy::SimdFloatAdd           682839     16.12%     17.26% # attempts to use FU when none available (Count)
system.cpu0.statFuBusy::SimdFloatAlu                0      0.00%     17.26% # attempts to use FU when none available (Count)
system.cpu0.statFuBusy::SimdFloatCmp                0      0.00%     17.26% # attempts to use FU when none available (Count)
system.cpu0.statFuBusy::SimdFloatCvt                0      0.00%     17.26% # attempts to use FU when none available (Count)
system.cpu0.statFuBusy::SimdFloatDiv                1      0.00%     17.26% # attempts to use FU when none available (Count)
system.cpu0.statFuBusy::SimdFloatMisc               0      0.00%     17.26% # attempts to use FU when none available (Count)
system.cpu0.statFuBusy::SimdFloatMult               0      0.00%     17.26% # attempts to use FU when none available (Count)
system.cpu0.statFuBusy::SimdFloatMultAcc            0      0.00%     17.26% # attempts to use FU when none available (Count)
system.cpu0.statFuBusy::SimdFloatSqrt               0      0.00%     17.26% # attempts to use FU when none available (Count)
system.cpu0.statFuBusy::SimdReduceAdd               0      0.00%     17.26% # attempts to use FU when none available (Count)
system.cpu0.statFuBusy::SimdReduceAlu               0      0.00%     17.26% # attempts to use FU when none available (Count)
system.cpu0.statFuBusy::SimdReduceCmp               0      0.00%     17.26% # attempts to use FU when none available (Count)
system.cpu0.statFuBusy::SimdFloatReduceAdd            0      0.00%     17.26% # attempts to use FU when none available (Count)
system.cpu0.statFuBusy::SimdFloatReduceCmp            0      0.00%     17.26% # attempts to use FU when none available (Count)
system.cpu0.statFuBusy::SimdAes                     0      0.00%     17.26% # attempts to use FU when none available (Count)
system.cpu0.statFuBusy::SimdAesMix                  0      0.00%     17.26% # attempts to use FU when none available (Count)
system.cpu0.statFuBusy::SimdSha1Hash                0      0.00%     17.26% # attempts to use FU when none available (Count)
system.cpu0.statFuBusy::SimdSha1Hash2               0      0.00%     17.26% # attempts to use FU when none available (Count)
system.cpu0.statFuBusy::SimdSha256Hash              0      0.00%     17.26% # attempts to use FU when none available (Count)
system.cpu0.statFuBusy::SimdSha256Hash2             0      0.00%     17.26% # attempts to use FU when none available (Count)
system.cpu0.statFuBusy::SimdShaSigma2               0      0.00%     17.26% # attempts to use FU when none available (Count)
system.cpu0.statFuBusy::SimdShaSigma3               0      0.00%     17.26% # attempts to use FU when none available (Count)
system.cpu0.statFuBusy::SimdPredAlu                 0      0.00%     17.26% # attempts to use FU when none available (Count)
system.cpu0.statFuBusy::MemRead                376657      8.89%     26.15% # attempts to use FU when none available (Count)
system.cpu0.statFuBusy::MemWrite               876022     20.68%     46.84% # attempts to use FU when none available (Count)
system.cpu0.statFuBusy::FloatMemRead          1938836     45.78%     92.62% # attempts to use FU when none available (Count)
system.cpu0.statFuBusy::FloatMemWrite          312757      7.38%    100.00% # attempts to use FU when none available (Count)
system.cpu0.statFuBusy::IprAccess                   0      0.00%    100.00% # attempts to use FU when none available (Count)
system.cpu0.statFuBusy::InstPrefetch                0      0.00%    100.00% # attempts to use FU when none available (Count)
system.cpu0.statIssuedInstType_0::No_OpClass      2765867      3.57%      3.57% # Number of instructions issued per FU type, per thread (Count)
system.cpu0.statIssuedInstType_0::IntAlu     33273876     42.91%     46.48% # Number of instructions issued per FU type, per thread (Count)
system.cpu0.statIssuedInstType_0::IntMult          304      0.00%     46.48% # Number of instructions issued per FU type, per thread (Count)
system.cpu0.statIssuedInstType_0::IntDiv         3054      0.00%     46.49% # Number of instructions issued per FU type, per thread (Count)
system.cpu0.statIssuedInstType_0::FloatAdd      3630772      4.68%     51.17% # Number of instructions issued per FU type, per thread (Count)
system.cpu0.statIssuedInstType_0::FloatCmp            0      0.00%     51.17% # Number of instructions issued per FU type, per thread (Count)
system.cpu0.statIssuedInstType_0::FloatCvt          536      0.00%     51.17% # Number of instructions issued per FU type, per thread (Count)
system.cpu0.statIssuedInstType_0::FloatMult            0      0.00%     51.17% # Number of instructions issued per FU type, per thread (Count)
system.cpu0.statIssuedInstType_0::FloatMultAcc            0      0.00%     51.17% # Number of instructions issued per FU type, per thread (Count)
system.cpu0.statIssuedInstType_0::FloatDiv            0      0.00%     51.17% # Number of instructions issued per FU type, per thread (Count)
system.cpu0.statIssuedInstType_0::FloatMisc            0      0.00%     51.17% # Number of instructions issued per FU type, per thread (Count)
system.cpu0.statIssuedInstType_0::FloatSqrt            0      0.00%     51.17% # Number of instructions issued per FU type, per thread (Count)
system.cpu0.statIssuedInstType_0::SimdAdd         2668      0.00%     51.17% # Number of instructions issued per FU type, per thread (Count)
system.cpu0.statIssuedInstType_0::SimdAddAcc            0      0.00%     51.17% # Number of instructions issued per FU type, per thread (Count)
system.cpu0.statIssuedInstType_0::SimdAlu        32195      0.04%     51.21% # Number of instructions issued per FU type, per thread (Count)
system.cpu0.statIssuedInstType_0::SimdCmp           68      0.00%     51.21% # Number of instructions issued per FU type, per thread (Count)
system.cpu0.statIssuedInstType_0::SimdCvt         6148      0.01%     51.22% # Number of instructions issued per FU type, per thread (Count)
system.cpu0.statIssuedInstType_0::SimdMisc         4122      0.01%     51.23% # Number of instructions issued per FU type, per thread (Count)
system.cpu0.statIssuedInstType_0::SimdMult            0      0.00%     51.23% # Number of instructions issued per FU type, per thread (Count)
system.cpu0.statIssuedInstType_0::SimdMultAcc            0      0.00%     51.23% # Number of instructions issued per FU type, per thread (Count)
system.cpu0.statIssuedInstType_0::SimdShift         1498      0.00%     51.23% # Number of instructions issued per FU type, per thread (Count)
system.cpu0.statIssuedInstType_0::SimdShiftAcc            0      0.00%     51.23% # Number of instructions issued per FU type, per thread (Count)
system.cpu0.statIssuedInstType_0::SimdDiv            0      0.00%     51.23% # Number of instructions issued per FU type, per thread (Count)
system.cpu0.statIssuedInstType_0::SimdSqrt            0      0.00%     51.23% # Number of instructions issued per FU type, per thread (Count)
system.cpu0.statIssuedInstType_0::SimdFloatAdd      7134017      9.20%     60.43% # Number of instructions issued per FU type, per thread (Count)
system.cpu0.statIssuedInstType_0::SimdFloatAlu            0      0.00%     60.43% # Number of instructions issued per FU type, per thread (Count)
system.cpu0.statIssuedInstType_0::SimdFloatCmp           26      0.00%     60.43% # Number of instructions issued per FU type, per thread (Count)
system.cpu0.statIssuedInstType_0::SimdFloatCvt      3017787      3.89%     64.32% # Number of instructions issued per FU type, per thread (Count)
system.cpu0.statIssuedInstType_0::SimdFloatDiv           17      0.00%     64.32% # Number of instructions issued per FU type, per thread (Count)
system.cpu0.statIssuedInstType_0::SimdFloatMisc            0      0.00%     64.32% # Number of instructions issued per FU type, per thread (Count)
system.cpu0.statIssuedInstType_0::SimdFloatMult      1006594      1.30%     65.62% # Number of instructions issued per FU type, per thread (Count)
system.cpu0.statIssuedInstType_0::SimdFloatMultAcc            0      0.00%     65.62% # Number of instructions issued per FU type, per thread (Count)
system.cpu0.statIssuedInstType_0::SimdFloatSqrt            0      0.00%     65.62% # Number of instructions issued per FU type, per thread (Count)
system.cpu0.statIssuedInstType_0::SimdReduceAdd            0      0.00%     65.62% # Number of instructions issued per FU type, per thread (Count)
system.cpu0.statIssuedInstType_0::SimdReduceAlu            0      0.00%     65.62% # Number of instructions issued per FU type, per thread (Count)
system.cpu0.statIssuedInstType_0::SimdReduceCmp            0      0.00%     65.62% # Number of instructions issued per FU type, per thread (Count)
system.cpu0.statIssuedInstType_0::SimdFloatReduceAdd            0      0.00%     65.62% # Number of instructions issued per FU type, per thread (Count)
system.cpu0.statIssuedInstType_0::SimdFloatReduceCmp            0      0.00%     65.62% # Number of instructions issued per FU type, per thread (Count)
system.cpu0.statIssuedInstType_0::SimdAes            0      0.00%     65.62% # Number of instructions issued per FU type, per thread (Count)
system.cpu0.statIssuedInstType_0::SimdAesMix            0      0.00%     65.62% # Number of instructions issued per FU type, per thread (Count)
system.cpu0.statIssuedInstType_0::SimdSha1Hash            0      0.00%     65.62% # Number of instructions issued per FU type, per thread (Count)
system.cpu0.statIssuedInstType_0::SimdSha1Hash2            0      0.00%     65.62% # Number of instructions issued per FU type, per thread (Count)
system.cpu0.statIssuedInstType_0::SimdSha256Hash            0      0.00%     65.62% # Number of instructions issued per FU type, per thread (Count)
system.cpu0.statIssuedInstType_0::SimdSha256Hash2            0      0.00%     65.62% # Number of instructions issued per FU type, per thread (Count)
system.cpu0.statIssuedInstType_0::SimdShaSigma2            0      0.00%     65.62% # Number of instructions issued per FU type, per thread (Count)
system.cpu0.statIssuedInstType_0::SimdShaSigma3            0      0.00%     65.62% # Number of instructions issued per FU type, per thread (Count)
system.cpu0.statIssuedInstType_0::SimdPredAlu            0      0.00%     65.62% # Number of instructions issued per FU type, per thread (Count)
system.cpu0.statIssuedInstType_0::MemRead      1607656      2.07%     67.69% # Number of instructions issued per FU type, per thread (Count)
system.cpu0.statIssuedInstType_0::MemWrite      3187410      4.11%     71.80% # Number of instructions issued per FU type, per thread (Count)
system.cpu0.statIssuedInstType_0::FloatMemRead     14232466     18.36%     90.16% # Number of instructions issued per FU type, per thread (Count)
system.cpu0.statIssuedInstType_0::FloatMemWrite      7629849      9.84%    100.00% # Number of instructions issued per FU type, per thread (Count)
system.cpu0.statIssuedInstType_0::IprAccess            0      0.00%    100.00% # Number of instructions issued per FU type, per thread (Count)
system.cpu0.statIssuedInstType_0::InstPrefetch            0      0.00%    100.00% # Number of instructions issued per FU type, per thread (Count)
system.cpu0.statIssuedInstType_0::total      77536930                       # Number of instructions issued per FU type, per thread (Count)
system.cpu0.issueRate                        0.408816                       # Inst issue rate ((Count/Cycle))
system.cpu0.fuBusy                            4235346                       # FU busy when requested (Count)
system.cpu0.fuBusyRate                       0.054624                       # FU busy rate (busy events/executed inst) ((Count/Count))
system.cpu0.intInstQueueReads               268137824                       # Number of integer instruction queue reads (Count)
system.cpu0.intInstQueueWrites               53099248                       # Number of integer instruction queue writes (Count)
system.cpu0.intInstQueueWakeupAccesses       36026705                       # Number of integer instruction queue wakeup accesses (Count)
system.cpu0.fpInstQueueReads                 80388889                       # Number of floating instruction queue reads (Count)
system.cpu0.fpInstQueueWrites                48991910                       # Number of floating instruction queue writes (Count)
system.cpu0.fpInstQueueWakeupAccesses        38635720                       # Number of floating instruction queue wakeup accesses (Count)
system.cpu0.vecInstQueueReads                       0                       # Number of vector instruction queue reads (Count)
system.cpu0.vecInstQueueWrites                      0                       # Number of vector instruction queue writes (Count)
system.cpu0.vecInstQueueWakeupAccesses              0                       # Number of vector instruction queue wakeup accesses (Count)
system.cpu0.intAluAccesses                   37328762                       # Number of integer alu accesses (Count)
system.cpu0.fpAluAccesses                    41677647                       # Number of floating point alu accesses (Count)
system.cpu0.vecAluAccesses                          0                       # Number of vector alu accesses (Count)
system.cpu0.numInsts                         77511000                       # Number of executed instructions (Count)
system.cpu0.numLoadInsts                     15834269                       # Number of load instructions executed (Count)
system.cpu0.numSquashedInsts                    25930                       # Number of squashed instructions skipped in execute (Count)
system.cpu0.numSwp                                  0                       # Number of swp insts executed (Count)
system.cpu0.numNop                                  0                       # Number of nop insts executed (Count)
system.cpu0.numRefs                          26650495                       # Number of memory reference insts executed (Count)
system.cpu0.numBranches                       5503223                       # Number of branches executed (Count)
system.cpu0.numStoreInsts                    10816226                       # Number of stores executed (Count)
system.cpu0.numRate                          0.408679                       # Inst execution rate ((Count/Cycle))
system.cpu0.timesIdled                           1985                       # Number of times that the entire CPU went into an idle state and unscheduled itself (Count)
system.cpu0.idleCycles                         446907                       # Total number of cycles that the CPU has spent unscheduled due to idling (Cycle)
system.cpu0.committedInsts                   29035792                       # Number of Instructions Simulated (Count)
system.cpu0.committedOps                     53099373                       # Number of Ops (including micro ops) Simulated (Count)
system.cpu0.cpi                              6.532018                       # CPI: Cycles Per Instruction ((Cycle/Count))
system.cpu0.totalCpi                         6.532018                       # CPI: Total CPI of All Threads ((Cycle/Count))
system.cpu0.ipc                              0.153092                       # IPC: Instructions Per Cycle ((Count/Cycle))
system.cpu0.totalIpc                         0.153092                       # IPC: Total IPC of All Threads ((Count/Cycle))
system.cpu0.intRegfileReads                  58731410                       # Number of integer regfile reads (Count)
system.cpu0.intRegfileWrites                 23453809                       # Number of integer regfile writes (Count)
system.cpu0.fpRegfileReads                   42200267                       # Number of floating regfile reads (Count)
system.cpu0.fpRegfileWrites                  27998340                       # Number of floating regfile writes (Count)
system.cpu0.ccRegfileReads                   33460105                       # number of cc regfile reads (Count)
system.cpu0.ccRegfileWrites                  20067491                       # number of cc regfile writes (Count)
system.cpu0.miscRegfileReads                 37677702                       # number of misc regfile reads (Count)
system.cpu0.miscRegfileWrites                     234                       # number of misc regfile writes (Count)
system.cpu0.MemDepUnit__0.insertedLoads      15780275                       # Number of loads inserted to the mem dependence unit. (Count)
system.cpu0.MemDepUnit__0.insertedStores     10823123                       # Number of stores inserted to the mem dependence unit. (Count)
system.cpu0.MemDepUnit__0.conflictingLoads       129456                       # Number of conflicting loads. (Count)
system.cpu0.MemDepUnit__0.conflictingStores       128686                       # Number of conflicting stores. (Count)
system.cpu0.MemDepUnit__1.insertedLoads             0                       # Number of loads inserted to the mem dependence unit. (Count)
system.cpu0.MemDepUnit__1.insertedStores            0                       # Number of stores inserted to the mem dependence unit. (Count)
system.cpu0.MemDepUnit__1.conflictingLoads            0                       # Number of conflicting loads. (Count)
system.cpu0.MemDepUnit__1.conflictingStores            0                       # Number of conflicting stores. (Count)
system.cpu0.MemDepUnit__2.insertedLoads             0                       # Number of loads inserted to the mem dependence unit. (Count)
system.cpu0.MemDepUnit__2.insertedStores            0                       # Number of stores inserted to the mem dependence unit. (Count)
system.cpu0.MemDepUnit__2.conflictingLoads            0                       # Number of conflicting loads. (Count)
system.cpu0.MemDepUnit__2.conflictingStores            0                       # Number of conflicting stores. (Count)
system.cpu0.MemDepUnit__3.insertedLoads             0                       # Number of loads inserted to the mem dependence unit. (Count)
system.cpu0.MemDepUnit__3.insertedStores            0                       # Number of stores inserted to the mem dependence unit. (Count)
system.cpu0.MemDepUnit__3.conflictingLoads            0                       # Number of conflicting loads. (Count)
system.cpu0.MemDepUnit__3.conflictingStores            0                       # Number of conflicting stores. (Count)
system.cpu0.branchPred.lookups                5931346                       # Number of BP lookups (Count)
system.cpu0.branchPred.condPredicted          5879442                       # Number of conditional branches predicted (Count)
system.cpu0.branchPred.condIncorrect             9020                       # Number of conditional branches incorrect (Count)
system.cpu0.branchPred.BTBLookups             2753813                       # Number of BTB lookups (Count)
system.cpu0.branchPred.BTBHits                2750010                       # Number of BTB hits (Count)
system.cpu0.branchPred.BTBHitRatio           0.998619                       # BTB Hit Ratio (Ratio)
system.cpu0.branchPred.RASUsed                  19465                       # Number of times the RAS was used to get a target. (Count)
system.cpu0.branchPred.RASIncorrect                 7                       # Number of incorrect RAS predictions. (Count)
system.cpu0.branchPred.indirectLookups           9542                       # Number of indirect predictor lookups. (Count)
system.cpu0.branchPred.indirectHits              5659                       # Number of indirect target hits. (Count)
system.cpu0.branchPred.indirectMisses            3883                       # Number of indirect misses. (Count)
system.cpu0.branchPred.indirectMispredicted          813                       # Number of mispredicted indirect branches. (Count)
system.cpu0.commit.commitSquashedInsts       21644694                       # The number of squashed insts skipped by commit (Count)
system.cpu0.commit.commitNonSpecStalls            904                       # The number of times commit has been forced to stall to communicate backwards (Count)
system.cpu0.commit.branchMispredicts             9558                       # The number of times a branch was mispredicted (Count)
system.cpu0.commit.numCommittedDist::samples    186326779                       # Number of insts commited each cycle (Count)
system.cpu0.commit.numCommittedDist::mean     0.284980                       # Number of insts commited each cycle (Count)
system.cpu0.commit.numCommittedDist::stdev     1.328133                       # Number of insts commited each cycle (Count)
system.cpu0.commit.numCommittedDist::underflows            0      0.00%      0.00% # Number of insts commited each cycle (Count)
system.cpu0.commit.numCommittedDist::0      174604740     93.71%     93.71% # Number of insts commited each cycle (Count)
system.cpu0.commit.numCommittedDist::1        2939593      1.58%     95.29% # Number of insts commited each cycle (Count)
system.cpu0.commit.numCommittedDist::2        1161589      0.62%     95.91% # Number of insts commited each cycle (Count)
system.cpu0.commit.numCommittedDist::3        1545405      0.83%     96.74% # Number of insts commited each cycle (Count)
system.cpu0.commit.numCommittedDist::4        1002723      0.54%     97.28% # Number of insts commited each cycle (Count)
system.cpu0.commit.numCommittedDist::5         409494      0.22%     97.50% # Number of insts commited each cycle (Count)
system.cpu0.commit.numCommittedDist::6          18111      0.01%     97.51% # Number of insts commited each cycle (Count)
system.cpu0.commit.numCommittedDist::7         127633      0.07%     97.58% # Number of insts commited each cycle (Count)
system.cpu0.commit.numCommittedDist::8        4517491      2.42%    100.00% # Number of insts commited each cycle (Count)
system.cpu0.commit.numCommittedDist::overflows            0      0.00%    100.00% # Number of insts commited each cycle (Count)
system.cpu0.commit.numCommittedDist::min_value            0                       # Number of insts commited each cycle (Count)
system.cpu0.commit.numCommittedDist::max_value            8                       # Number of insts commited each cycle (Count)
system.cpu0.commit.numCommittedDist::total    186326779                       # Number of insts commited each cycle (Count)
system.cpu0.commit.instsCommitted            29035792                       # Number of instructions committed (Count)
system.cpu0.commit.opsCommitted              53099373                       # Number of ops (including micro ops) committed (Count)
system.cpu0.commit.memRefs                   12235884                       # Number of memory references committed (Count)
system.cpu0.commit.loads                      9435695                       # Number of loads committed (Count)
system.cpu0.commit.amos                             0                       # Number of atomic instructions committed (Count)
system.cpu0.commit.membars                        444                       # Number of memory barriers committed (Count)
system.cpu0.commit.branches                   4838015                       # Number of branches committed (Count)
system.cpu0.commit.vectorInstructions               0                       # Number of committed Vector instructions. (Count)
system.cpu0.commit.floating                  28319370                       # Number of committed floating point instructions. (Count)
system.cpu0.commit.integer                   36232114                       # Number of committed integer instructions. (Count)
system.cpu0.commit.functionCalls                 8153                       # Number of function calls committed. (Count)
system.cpu0.commit.committedInstType_0::No_OpClass         6696      0.01%      0.01% # Class of committed instruction (Count)
system.cpu0.commit.committedInstType_0::IntAlu     26063299     49.08%     49.10% # Class of committed instruction (Count)
system.cpu0.commit.committedInstType_0::IntMult          280      0.00%     49.10% # Class of committed instruction (Count)
system.cpu0.commit.committedInstType_0::IntDiv         2797      0.01%     49.10% # Class of committed instruction (Count)
system.cpu0.commit.committedInstType_0::FloatAdd      3627908      6.83%     55.93% # Class of committed instruction (Count)
system.cpu0.commit.committedInstType_0::FloatCmp            0      0.00%     55.93% # Class of committed instruction (Count)
system.cpu0.commit.committedInstType_0::FloatCvt          416      0.00%     55.94% # Class of committed instruction (Count)
system.cpu0.commit.committedInstType_0::FloatMult            0      0.00%     55.94% # Class of committed instruction (Count)
system.cpu0.commit.committedInstType_0::FloatMultAcc            0      0.00%     55.94% # Class of committed instruction (Count)
system.cpu0.commit.committedInstType_0::FloatDiv            0      0.00%     55.94% # Class of committed instruction (Count)
system.cpu0.commit.committedInstType_0::FloatMisc            0      0.00%     55.94% # Class of committed instruction (Count)
system.cpu0.commit.committedInstType_0::FloatSqrt            0      0.00%     55.94% # Class of committed instruction (Count)
system.cpu0.commit.committedInstType_0::SimdAdd         2098      0.00%     55.94% # Class of committed instruction (Count)
system.cpu0.commit.committedInstType_0::SimdAddAcc            0      0.00%     55.94% # Class of committed instruction (Count)
system.cpu0.commit.committedInstType_0::SimdAlu        12568      0.02%     55.96% # Class of committed instruction (Count)
system.cpu0.commit.committedInstType_0::SimdCmp           66      0.00%     55.96% # Class of committed instruction (Count)
system.cpu0.commit.committedInstType_0::SimdCvt         4504      0.01%     55.97% # Class of committed instruction (Count)
system.cpu0.commit.committedInstType_0::SimdMisc         3511      0.01%     55.98% # Class of committed instruction (Count)
system.cpu0.commit.committedInstType_0::SimdMult            0      0.00%     55.98% # Class of committed instruction (Count)
system.cpu0.commit.committedInstType_0::SimdMultAcc            0      0.00%     55.98% # Class of committed instruction (Count)
system.cpu0.commit.committedInstType_0::SimdShift          727      0.00%     55.98% # Class of committed instruction (Count)
system.cpu0.commit.committedInstType_0::SimdShiftAcc            0      0.00%     55.98% # Class of committed instruction (Count)
system.cpu0.commit.committedInstType_0::SimdDiv            0      0.00%     55.98% # Class of committed instruction (Count)
system.cpu0.commit.committedInstType_0::SimdSqrt            0      0.00%     55.98% # Class of committed instruction (Count)
system.cpu0.commit.committedInstType_0::SimdFloatAdd      7129512     13.43%     69.41% # Class of committed instruction (Count)
system.cpu0.commit.committedInstType_0::SimdFloatAlu            0      0.00%     69.41% # Class of committed instruction (Count)
system.cpu0.commit.committedInstType_0::SimdFloatCmp           24      0.00%     69.41% # Class of committed instruction (Count)
system.cpu0.commit.committedInstType_0::SimdFloatCvt      3006781      5.66%     75.07% # Class of committed instruction (Count)
system.cpu0.commit.committedInstType_0::SimdFloatDiv           15      0.00%     75.07% # Class of committed instruction (Count)
system.cpu0.commit.committedInstType_0::SimdFloatMisc            0      0.00%     75.07% # Class of committed instruction (Count)
system.cpu0.commit.committedInstType_0::SimdFloatMult      1002287      1.89%     76.96% # Class of committed instruction (Count)
system.cpu0.commit.committedInstType_0::SimdFloatMultAcc            0      0.00%     76.96% # Class of committed instruction (Count)
system.cpu0.commit.committedInstType_0::SimdFloatSqrt            0      0.00%     76.96% # Class of committed instruction (Count)
system.cpu0.commit.committedInstType_0::SimdReduceAdd            0      0.00%     76.96% # Class of committed instruction (Count)
system.cpu0.commit.committedInstType_0::SimdReduceAlu            0      0.00%     76.96% # Class of committed instruction (Count)
system.cpu0.commit.committedInstType_0::SimdReduceCmp            0      0.00%     76.96% # Class of committed instruction (Count)
system.cpu0.commit.committedInstType_0::SimdFloatReduceAdd            0      0.00%     76.96% # Class of committed instruction (Count)
system.cpu0.commit.committedInstType_0::SimdFloatReduceCmp            0      0.00%     76.96% # Class of committed instruction (Count)
system.cpu0.commit.committedInstType_0::SimdAes            0      0.00%     76.96% # Class of committed instruction (Count)
system.cpu0.commit.committedInstType_0::SimdAesMix            0      0.00%     76.96% # Class of committed instruction (Count)
system.cpu0.commit.committedInstType_0::SimdSha1Hash            0      0.00%     76.96% # Class of committed instruction (Count)
system.cpu0.commit.committedInstType_0::SimdSha1Hash2            0      0.00%     76.96% # Class of committed instruction (Count)
system.cpu0.commit.committedInstType_0::SimdSha256Hash            0      0.00%     76.96% # Class of committed instruction (Count)
system.cpu0.commit.committedInstType_0::SimdSha256Hash2            0      0.00%     76.96% # Class of committed instruction (Count)
system.cpu0.commit.committedInstType_0::SimdShaSigma2            0      0.00%     76.96% # Class of committed instruction (Count)
system.cpu0.commit.committedInstType_0::SimdShaSigma3            0      0.00%     76.96% # Class of committed instruction (Count)
system.cpu0.commit.committedInstType_0::SimdPredAlu            0      0.00%     76.96% # Class of committed instruction (Count)
system.cpu0.commit.committedInstType_0::MemRead       292239      0.55%     77.51% # Class of committed instruction (Count)
system.cpu0.commit.committedInstType_0::MemWrite       420145      0.79%     78.30% # Class of committed instruction (Count)
system.cpu0.commit.committedInstType_0::FloatMemRead      9143456     17.22%     95.52% # Class of committed instruction (Count)
system.cpu0.commit.committedInstType_0::FloatMemWrite      2380044      4.48%    100.00% # Class of committed instruction (Count)
system.cpu0.commit.committedInstType_0::IprAccess            0      0.00%    100.00% # Class of committed instruction (Count)
system.cpu0.commit.committedInstType_0::InstPrefetch            0      0.00%    100.00% # Class of committed instruction (Count)
system.cpu0.commit.committedInstType_0::total     53099373                       # Class of committed instruction (Count)
system.cpu0.commit.commitEligibleSamples      4517491                       # number cycles where commit BW limit reached (Cycle)
system.cpu0.dcache.demandHits::cpu0.data     12538143                       # number of demand (read+write) hits (Count)
system.cpu0.dcache.demandHits::total         12538143                       # number of demand (read+write) hits (Count)
system.cpu0.dcache.overallHits::cpu0.data     13754804                       # number of overall hits (Count)
system.cpu0.dcache.overallHits::total        13754804                       # number of overall hits (Count)
system.cpu0.dcache.demandMisses::cpu0.data      4380129                       # number of demand (read+write) misses (Count)
system.cpu0.dcache.demandMisses::total        4380129                       # number of demand (read+write) misses (Count)
system.cpu0.dcache.overallMisses::cpu0.data      4538292                       # number of overall misses (Count)
system.cpu0.dcache.overallMisses::total       4538292                       # number of overall misses (Count)
system.cpu0.dcache.demandMissLatency::cpu0.data 238309589742                       # number of demand (read+write) miss ticks (Tick)
system.cpu0.dcache.demandMissLatency::total 238309589742                       # number of demand (read+write) miss ticks (Tick)
system.cpu0.dcache.overallMissLatency::cpu0.data 238309589742                       # number of overall miss ticks (Tick)
system.cpu0.dcache.overallMissLatency::total 238309589742                       # number of overall miss ticks (Tick)
system.cpu0.dcache.demandAccesses::cpu0.data     16918272                       # number of demand (read+write) accesses (Count)
system.cpu0.dcache.demandAccesses::total     16918272                       # number of demand (read+write) accesses (Count)
system.cpu0.dcache.overallAccesses::cpu0.data     18293096                       # number of overall (read+write) accesses (Count)
system.cpu0.dcache.overallAccesses::total     18293096                       # number of overall (read+write) accesses (Count)
system.cpu0.dcache.demandMissRate::cpu0.data     0.258899                       # miss rate for demand accesses (Ratio)
system.cpu0.dcache.demandMissRate::total     0.258899                       # miss rate for demand accesses (Ratio)
system.cpu0.dcache.overallMissRate::cpu0.data     0.248088                       # miss rate for overall accesses (Ratio)
system.cpu0.dcache.overallMissRate::total     0.248088                       # miss rate for overall accesses (Ratio)
system.cpu0.dcache.demandAvgMissLatency::cpu0.data 54406.979736                       # average overall miss latency in ticks ((Tick/Count))
system.cpu0.dcache.demandAvgMissLatency::total 54406.979736                       # average overall miss latency in ticks ((Tick/Count))
system.cpu0.dcache.overallAvgMissLatency::cpu0.data 52510.854247                       # average overall miss latency ((Tick/Count))
system.cpu0.dcache.overallAvgMissLatency::total 52510.854247                       # average overall miss latency ((Tick/Count))
system.cpu0.dcache.blockedCycles::no_mshrs     13601863                       # number of cycles access was blocked (Cycle)
system.cpu0.dcache.blockedCycles::no_targets         4133                       # number of cycles access was blocked (Cycle)
system.cpu0.dcache.blockedCauses::no_mshrs       171340                       # number of times access was blocked (Count)
system.cpu0.dcache.blockedCauses::no_targets           22                       # number of times access was blocked (Count)
system.cpu0.dcache.avgBlocked::no_mshrs     79.385217                       # average number of cycles each access was blocked ((Cycle/Count))
system.cpu0.dcache.avgBlocked::no_targets   187.863636                       # average number of cycles each access was blocked ((Cycle/Count))
system.cpu0.dcache.writebacks::writebacks       314761                       # number of writebacks (Count)
system.cpu0.dcache.writebacks::total           314761                       # number of writebacks (Count)
system.cpu0.dcache.demandMshrHits::cpu0.data      3373688                       # number of demand (read+write) MSHR hits (Count)
system.cpu0.dcache.demandMshrHits::total      3373688                       # number of demand (read+write) MSHR hits (Count)
system.cpu0.dcache.overallMshrHits::cpu0.data      3373688                       # number of overall MSHR hits (Count)
system.cpu0.dcache.overallMshrHits::total      3373688                       # number of overall MSHR hits (Count)
system.cpu0.dcache.demandMshrMisses::cpu0.data      1006441                       # number of demand (read+write) MSHR misses (Count)
system.cpu0.dcache.demandMshrMisses::total      1006441                       # number of demand (read+write) MSHR misses (Count)
system.cpu0.dcache.overallMshrMisses::cpu0.data      1068939                       # number of overall MSHR misses (Count)
system.cpu0.dcache.overallMshrMisses::total      1068939                       # number of overall MSHR misses (Count)
system.cpu0.dcache.demandMshrMissLatency::cpu0.data  98750256740                       # number of demand (read+write) MSHR miss ticks (Tick)
system.cpu0.dcache.demandMshrMissLatency::total  98750256740                       # number of demand (read+write) MSHR miss ticks (Tick)
system.cpu0.dcache.overallMshrMissLatency::cpu0.data 105250688990                       # number of overall MSHR miss ticks (Tick)
system.cpu0.dcache.overallMshrMissLatency::total 105250688990                       # number of overall MSHR miss ticks (Tick)
system.cpu0.dcache.demandMshrMissRate::cpu0.data     0.059488                       # mshr miss ratio for demand accesses (Ratio)
system.cpu0.dcache.demandMshrMissRate::total     0.059488                       # mshr miss ratio for demand accesses (Ratio)
system.cpu0.dcache.overallMshrMissRate::cpu0.data     0.058434                       # mshr miss ratio for overall accesses (Ratio)
system.cpu0.dcache.overallMshrMissRate::total     0.058434                       # mshr miss ratio for overall accesses (Ratio)
system.cpu0.dcache.demandAvgMshrMissLatency::cpu0.data 98118.276918                       # average overall mshr miss latency ((Tick/Count))
system.cpu0.dcache.demandAvgMshrMissLatency::total 98118.276918                       # average overall mshr miss latency ((Tick/Count))
system.cpu0.dcache.overallAvgMshrMissLatency::cpu0.data 98462.764470                       # average overall mshr miss latency ((Tick/Count))
system.cpu0.dcache.overallAvgMshrMissLatency::total 98462.764470                       # average overall mshr miss latency ((Tick/Count))
system.cpu0.dcache.replacements               1067631                       # number of replacements (Count)
system.cpu0.dcache.LockedRMWReadReq.hits::cpu0.data          181                       # number of LockedRMWReadReq hits (Count)
system.cpu0.dcache.LockedRMWReadReq.hits::total          181                       # number of LockedRMWReadReq hits (Count)
system.cpu0.dcache.LockedRMWReadReq.misses::cpu0.data           41                       # number of LockedRMWReadReq misses (Count)
system.cpu0.dcache.LockedRMWReadReq.misses::total           41                       # number of LockedRMWReadReq misses (Count)
system.cpu0.dcache.LockedRMWReadReq.missLatency::cpu0.data       755500                       # number of LockedRMWReadReq miss ticks (Tick)
system.cpu0.dcache.LockedRMWReadReq.missLatency::total       755500                       # number of LockedRMWReadReq miss ticks (Tick)
system.cpu0.dcache.LockedRMWReadReq.accesses::cpu0.data          222                       # number of LockedRMWReadReq accesses(hits+misses) (Count)
system.cpu0.dcache.LockedRMWReadReq.accesses::total          222                       # number of LockedRMWReadReq accesses(hits+misses) (Count)
system.cpu0.dcache.LockedRMWReadReq.missRate::cpu0.data     0.184685                       # miss rate for LockedRMWReadReq accesses (Ratio)
system.cpu0.dcache.LockedRMWReadReq.missRate::total     0.184685                       # miss rate for LockedRMWReadReq accesses (Ratio)
system.cpu0.dcache.LockedRMWReadReq.avgMissLatency::cpu0.data 18426.829268                       # average LockedRMWReadReq miss latency ((Tick/Count))
system.cpu0.dcache.LockedRMWReadReq.avgMissLatency::total 18426.829268                       # average LockedRMWReadReq miss latency ((Tick/Count))
system.cpu0.dcache.LockedRMWReadReq.mshrMisses::cpu0.data           41                       # number of LockedRMWReadReq MSHR misses (Count)
system.cpu0.dcache.LockedRMWReadReq.mshrMisses::total           41                       # number of LockedRMWReadReq MSHR misses (Count)
system.cpu0.dcache.LockedRMWReadReq.mshrMissLatency::cpu0.data      1989000                       # number of LockedRMWReadReq MSHR miss ticks (Tick)
system.cpu0.dcache.LockedRMWReadReq.mshrMissLatency::total      1989000                       # number of LockedRMWReadReq MSHR miss ticks (Tick)
system.cpu0.dcache.LockedRMWReadReq.mshrMissRate::cpu0.data     0.184685                       # mshr miss rate for LockedRMWReadReq accesses (Ratio)
system.cpu0.dcache.LockedRMWReadReq.mshrMissRate::total     0.184685                       # mshr miss rate for LockedRMWReadReq accesses (Ratio)
system.cpu0.dcache.LockedRMWReadReq.avgMshrMissLatency::cpu0.data 48512.195122                       # average LockedRMWReadReq mshr miss latency ((Tick/Count))
system.cpu0.dcache.LockedRMWReadReq.avgMshrMissLatency::total 48512.195122                       # average LockedRMWReadReq mshr miss latency ((Tick/Count))
system.cpu0.dcache.LockedRMWWriteReq.hits::cpu0.data          222                       # number of LockedRMWWriteReq hits (Count)
system.cpu0.dcache.LockedRMWWriteReq.hits::total          222                       # number of LockedRMWWriteReq hits (Count)
system.cpu0.dcache.LockedRMWWriteReq.accesses::cpu0.data          222                       # number of LockedRMWWriteReq accesses(hits+misses) (Count)
system.cpu0.dcache.LockedRMWWriteReq.accesses::total          222                       # number of LockedRMWWriteReq accesses(hits+misses) (Count)
system.cpu0.dcache.ReadReq.hits::cpu0.data     10287097                       # number of ReadReq hits (Count)
system.cpu0.dcache.ReadReq.hits::total       10287097                       # number of ReadReq hits (Count)
system.cpu0.dcache.ReadReq.misses::cpu0.data      4081172                       # number of ReadReq misses (Count)
system.cpu0.dcache.ReadReq.misses::total      4081172                       # number of ReadReq misses (Count)
system.cpu0.dcache.ReadReq.missLatency::cpu0.data 207267267000                       # number of ReadReq miss ticks (Tick)
system.cpu0.dcache.ReadReq.missLatency::total 207267267000                       # number of ReadReq miss ticks (Tick)
system.cpu0.dcache.ReadReq.accesses::cpu0.data     14368269                       # number of ReadReq accesses(hits+misses) (Count)
system.cpu0.dcache.ReadReq.accesses::total     14368269                       # number of ReadReq accesses(hits+misses) (Count)
system.cpu0.dcache.ReadReq.missRate::cpu0.data     0.284041                       # miss rate for ReadReq accesses (Ratio)
system.cpu0.dcache.ReadReq.missRate::total     0.284041                       # miss rate for ReadReq accesses (Ratio)
system.cpu0.dcache.ReadReq.avgMissLatency::cpu0.data 50786.212147                       # average ReadReq miss latency ((Tick/Count))
system.cpu0.dcache.ReadReq.avgMissLatency::total 50786.212147                       # average ReadReq miss latency ((Tick/Count))
system.cpu0.dcache.ReadReq.mshrHits::cpu0.data      3373678                       # number of ReadReq MSHR hits (Count)
system.cpu0.dcache.ReadReq.mshrHits::total      3373678                       # number of ReadReq MSHR hits (Count)
system.cpu0.dcache.ReadReq.mshrMisses::cpu0.data       707494                       # number of ReadReq MSHR misses (Count)
system.cpu0.dcache.ReadReq.mshrMisses::total       707494                       # number of ReadReq MSHR misses (Count)
system.cpu0.dcache.ReadReq.mshrMissLatency::cpu0.data  67857923750                       # number of ReadReq MSHR miss ticks (Tick)
system.cpu0.dcache.ReadReq.mshrMissLatency::total  67857923750                       # number of ReadReq MSHR miss ticks (Tick)
system.cpu0.dcache.ReadReq.mshrMissRate::cpu0.data     0.049240                       # mshr miss rate for ReadReq accesses (Ratio)
system.cpu0.dcache.ReadReq.mshrMissRate::total     0.049240                       # mshr miss rate for ReadReq accesses (Ratio)
system.cpu0.dcache.ReadReq.avgMshrMissLatency::cpu0.data 95913.073114                       # average ReadReq mshr miss latency ((Tick/Count))
system.cpu0.dcache.ReadReq.avgMshrMissLatency::total 95913.073114                       # average ReadReq mshr miss latency ((Tick/Count))
system.cpu0.dcache.SoftPFReq.hits::cpu0.data      1216661                       # number of SoftPFReq hits (Count)
system.cpu0.dcache.SoftPFReq.hits::total      1216661                       # number of SoftPFReq hits (Count)
system.cpu0.dcache.SoftPFReq.misses::cpu0.data       158163                       # number of SoftPFReq misses (Count)
system.cpu0.dcache.SoftPFReq.misses::total       158163                       # number of SoftPFReq misses (Count)
system.cpu0.dcache.SoftPFReq.accesses::cpu0.data      1374824                       # number of SoftPFReq accesses(hits+misses) (Count)
system.cpu0.dcache.SoftPFReq.accesses::total      1374824                       # number of SoftPFReq accesses(hits+misses) (Count)
system.cpu0.dcache.SoftPFReq.missRate::cpu0.data     0.115042                       # miss rate for SoftPFReq accesses (Ratio)
system.cpu0.dcache.SoftPFReq.missRate::total     0.115042                       # miss rate for SoftPFReq accesses (Ratio)
system.cpu0.dcache.SoftPFReq.mshrMisses::cpu0.data        62498                       # number of SoftPFReq MSHR misses (Count)
system.cpu0.dcache.SoftPFReq.mshrMisses::total        62498                       # number of SoftPFReq MSHR misses (Count)
system.cpu0.dcache.SoftPFReq.mshrMissLatency::cpu0.data   6500432250                       # number of SoftPFReq MSHR miss ticks (Tick)
system.cpu0.dcache.SoftPFReq.mshrMissLatency::total   6500432250                       # number of SoftPFReq MSHR miss ticks (Tick)
system.cpu0.dcache.SoftPFReq.mshrMissRate::cpu0.data     0.045459                       # mshr miss rate for SoftPFReq accesses (Ratio)
system.cpu0.dcache.SoftPFReq.mshrMissRate::total     0.045459                       # mshr miss rate for SoftPFReq accesses (Ratio)
system.cpu0.dcache.SoftPFReq.avgMshrMissLatency::cpu0.data 104010.244328                       # average SoftPFReq mshr miss latency ((Tick/Count))
system.cpu0.dcache.SoftPFReq.avgMshrMissLatency::total 104010.244328                       # average SoftPFReq mshr miss latency ((Tick/Count))
system.cpu0.dcache.WriteReq.hits::cpu0.data      2251046                       # number of WriteReq hits (Count)
system.cpu0.dcache.WriteReq.hits::total       2251046                       # number of WriteReq hits (Count)
system.cpu0.dcache.WriteReq.misses::cpu0.data       298957                       # number of WriteReq misses (Count)
system.cpu0.dcache.WriteReq.misses::total       298957                       # number of WriteReq misses (Count)
system.cpu0.dcache.WriteReq.missLatency::cpu0.data  31042322742                       # number of WriteReq miss ticks (Tick)
system.cpu0.dcache.WriteReq.missLatency::total  31042322742                       # number of WriteReq miss ticks (Tick)
system.cpu0.dcache.WriteReq.accesses::cpu0.data      2550003                       # number of WriteReq accesses(hits+misses) (Count)
system.cpu0.dcache.WriteReq.accesses::total      2550003                       # number of WriteReq accesses(hits+misses) (Count)
system.cpu0.dcache.WriteReq.missRate::cpu0.data     0.117238                       # miss rate for WriteReq accesses (Ratio)
system.cpu0.dcache.WriteReq.missRate::total     0.117238                       # miss rate for WriteReq accesses (Ratio)
system.cpu0.dcache.WriteReq.avgMissLatency::cpu0.data 103835.410250                       # average WriteReq miss latency ((Tick/Count))
system.cpu0.dcache.WriteReq.avgMissLatency::total 103835.410250                       # average WriteReq miss latency ((Tick/Count))
system.cpu0.dcache.WriteReq.mshrHits::cpu0.data           10                       # number of WriteReq MSHR hits (Count)
system.cpu0.dcache.WriteReq.mshrHits::total           10                       # number of WriteReq MSHR hits (Count)
system.cpu0.dcache.WriteReq.mshrMisses::cpu0.data       298947                       # number of WriteReq MSHR misses (Count)
system.cpu0.dcache.WriteReq.mshrMisses::total       298947                       # number of WriteReq MSHR misses (Count)
system.cpu0.dcache.WriteReq.mshrMissLatency::cpu0.data  30892332990                       # number of WriteReq MSHR miss ticks (Tick)
system.cpu0.dcache.WriteReq.mshrMissLatency::total  30892332990                       # number of WriteReq MSHR miss ticks (Tick)
system.cpu0.dcache.WriteReq.mshrMissRate::cpu0.data     0.117234                       # mshr miss rate for WriteReq accesses (Ratio)
system.cpu0.dcache.WriteReq.mshrMissRate::total     0.117234                       # mshr miss rate for WriteReq accesses (Ratio)
system.cpu0.dcache.WriteReq.avgMshrMissLatency::cpu0.data 103337.156720                       # average WriteReq mshr miss latency ((Tick/Count))
system.cpu0.dcache.WriteReq.avgMshrMissLatency::total 103337.156720                       # average WriteReq mshr miss latency ((Tick/Count))
system.cpu0.dcache.power_state.pwrStateResidencyTicks::UNDEFINED  47415580500                       # Cumulative time (in ticks) in various power states (Tick)
system.cpu0.dcache.tags.tagsInUse         1022.729010                       # Average ticks per tags in use ((Tick/Count))
system.cpu0.dcache.tags.totalRefs            14824189                       # Total number of references to valid blocks. (Count)
system.cpu0.dcache.tags.sampledRefs           1068888                       # Sample count of references to valid blocks. (Count)
system.cpu0.dcache.tags.avgRefs             13.868795                       # Average number of references to valid blocks. ((Count/Count))
system.cpu0.dcache.tags.warmupTick             153000                       # The tick when the warmup percentage was hit. (Tick)
system.cpu0.dcache.tags.occupancies::cpu0.data  1022.729010                       # Average occupied blocks per tick, per requestor ((Count/Tick))
system.cpu0.dcache.tags.avgOccs::cpu0.data     0.998759                       # Average percentage of cache occupancy ((Ratio/Tick))
system.cpu0.dcache.tags.avgOccs::total       0.998759                       # Average percentage of cache occupancy ((Ratio/Tick))
system.cpu0.dcache.tags.occupanciesTaskId::1024         1024                       # Occupied blocks per task id (Count)
system.cpu0.dcache.tags.ageTaskId_1024::0          139                       # Occupied blocks per task id, per block age (Count)
system.cpu0.dcache.tags.ageTaskId_1024::1          884                       # Occupied blocks per task id, per block age (Count)
system.cpu0.dcache.tags.ageTaskId_1024::4            1                       # Occupied blocks per task id, per block age (Count)
system.cpu0.dcache.tags.ratioOccsTaskId::1024            1                       # Ratio of occupied blocks and all blocks, per task id (Ratio)
system.cpu0.dcache.tags.tagAccesses          37655968                       # Number of tag accesses (Count)
system.cpu0.dcache.tags.dataAccesses         37655968                       # Number of data accesses (Count)
system.cpu0.dcache.tags.power_state.pwrStateResidencyTicks::UNDEFINED  47415580500                       # Cumulative time (in ticks) in various power states (Tick)
system.cpu0.decode.idleCycles                 2340622                       # Number of cycles decode is idle (Cycle)
system.cpu0.decode.blockedCycles            175937624                       # Number of cycles decode is blocked (Cycle)
system.cpu0.decode.runCycles                  8079563                       # Number of cycles decode is running (Cycle)
system.cpu0.decode.unblockCycles              2595179                       # Number of cycles decode is unblocking (Cycle)
system.cpu0.decode.squashCycles                262428                       # Number of cycles decode is squashing (Cycle)
system.cpu0.decode.branchResolved             2496474                       # Number of times decode resolved a branch (Count)
system.cpu0.decode.branchMispred                 1357                       # Number of times decode detected a branch misprediction (Count)
system.cpu0.decode.decodedInsts              80327945                       # Number of instructions handled by decode (Count)
system.cpu0.decode.squashedInsts                 6483                       # Number of squashed instructions handled by decode (Count)
system.cpu0.dtb_walker_cache.blockedCycles::no_mshrs            0                       # number of cycles access was blocked (Cycle)
system.cpu0.dtb_walker_cache.blockedCycles::no_targets            0                       # number of cycles access was blocked (Cycle)
system.cpu0.dtb_walker_cache.blockedCauses::no_mshrs            0                       # number of times access was blocked (Count)
system.cpu0.dtb_walker_cache.blockedCauses::no_targets            0                       # number of times access was blocked (Count)
system.cpu0.dtb_walker_cache.avgBlocked::no_mshrs          nan                       # average number of cycles each access was blocked ((Cycle/Count))
system.cpu0.dtb_walker_cache.avgBlocked::no_targets          nan                       # average number of cycles each access was blocked ((Cycle/Count))
system.cpu0.dtb_walker_cache.replacements            0                       # number of replacements (Count)
system.cpu0.dtb_walker_cache.power_state.pwrStateResidencyTicks::UNDEFINED  47415580500                       # Cumulative time (in ticks) in various power states (Tick)
system.cpu0.dtb_walker_cache.tags.tagsInUse            0                       # Average ticks per tags in use ((Tick/Count))
system.cpu0.dtb_walker_cache.tags.totalRefs            0                       # Total number of references to valid blocks. (Count)
system.cpu0.dtb_walker_cache.tags.sampledRefs            0                       # Sample count of references to valid blocks. (Count)
system.cpu0.dtb_walker_cache.tags.avgRefs          nan                       # Average number of references to valid blocks. ((Count/Count))
system.cpu0.dtb_walker_cache.tags.warmupTick            0                       # The tick when the warmup percentage was hit. (Tick)
system.cpu0.dtb_walker_cache.tags.tagAccesses            0                       # Number of tag accesses (Count)
system.cpu0.dtb_walker_cache.tags.dataAccesses            0                       # Number of data accesses (Count)
system.cpu0.dtb_walker_cache.tags.power_state.pwrStateResidencyTicks::UNDEFINED  47415580500                       # Cumulative time (in ticks) in various power states (Tick)
system.cpu0.fetch.icacheStallCycles           5617984                       # Number of cycles fetch is stalled on an Icache miss (Cycle)
system.cpu0.fetch.insts                      44079727                       # Number of instructions fetch has processed (Count)
system.cpu0.fetch.branches                    5931346                       # Number of branches that fetch encountered (Count)
system.cpu0.fetch.predictedBranches           2775134                       # Number of branches that fetch has predicted taken (Count)
system.cpu0.fetch.cycles                    183318312                       # Number of cycles fetch has run and was not squashing or blocked (Cycle)
system.cpu0.fetch.squashCycles                 527526                       # Number of cycles fetch has spent squashing (Cycle)
system.cpu0.fetch.miscStallCycles                1937                       # Number of cycles fetch has spent waiting on interrupts, or bad addresses, or out of MSHRs (Cycle)
system.cpu0.fetch.pendingTrapStallCycles        13177                       # Number of stall cycles due to pending traps (Cycle)
system.cpu0.fetch.icacheWaitRetryStallCycles          243                       # Number of stall cycles due to full MSHR (Cycle)
system.cpu0.fetch.cacheLines                  5431644                       # Number of cache lines fetched (Count)
system.cpu0.fetch.icacheSquashes                 3395                       # Number of outstanding Icache misses that were squashed (Count)
system.cpu0.fetch.nisnDist::samples         189215416                       # Number of instructions fetched each cycle (Total) (Count)
system.cpu0.fetch.nisnDist::mean             0.477242                       # Number of instructions fetched each cycle (Total) (Count)
system.cpu0.fetch.nisnDist::stdev            1.792081                       # Number of instructions fetched each cycle (Total) (Count)
system.cpu0.fetch.nisnDist::underflows              0      0.00%      0.00% # Number of instructions fetched each cycle (Total) (Count)
system.cpu0.fetch.nisnDist::0               175328299     92.66%     92.66% # Number of instructions fetched each cycle (Total) (Count)
system.cpu0.fetch.nisnDist::1                  324155      0.17%     92.83% # Number of instructions fetched each cycle (Total) (Count)
system.cpu0.fetch.nisnDist::2                  770692      0.41%     93.24% # Number of instructions fetched each cycle (Total) (Count)
system.cpu0.fetch.nisnDist::3                 1234577      0.65%     93.89% # Number of instructions fetched each cycle (Total) (Count)
system.cpu0.fetch.nisnDist::4                  584872      0.31%     94.20% # Number of instructions fetched each cycle (Total) (Count)
system.cpu0.fetch.nisnDist::5                  386719      0.20%     94.41% # Number of instructions fetched each cycle (Total) (Count)
system.cpu0.fetch.nisnDist::6                 1580585      0.84%     95.24% # Number of instructions fetched each cycle (Total) (Count)
system.cpu0.fetch.nisnDist::7                 1068467      0.56%     95.81% # Number of instructions fetched each cycle (Total) (Count)
system.cpu0.fetch.nisnDist::8                 7937050      4.19%    100.00% # Number of instructions fetched each cycle (Total) (Count)
system.cpu0.fetch.nisnDist::overflows               0      0.00%    100.00% # Number of instructions fetched each cycle (Total) (Count)
system.cpu0.fetch.nisnDist::min_value               0                       # Number of instructions fetched each cycle (Total) (Count)
system.cpu0.fetch.nisnDist::max_value               8                       # Number of instructions fetched each cycle (Total) (Count)
system.cpu0.fetch.nisnDist::total           189215416                       # Number of instructions fetched each cycle (Total) (Count)
system.cpu0.fetch.branchRate                 0.031273                       # Number of branch fetches per cycle (Ratio)
system.cpu0.fetch.rate                       0.232412                       # Number of inst fetches per cycle ((Count/Cycle))
system.cpu0.icache.demandHits::cpu0.inst      5428138                       # number of demand (read+write) hits (Count)
system.cpu0.icache.demandHits::total          5428138                       # number of demand (read+write) hits (Count)
system.cpu0.icache.overallHits::cpu0.inst      5428138                       # number of overall hits (Count)
system.cpu0.icache.overallHits::total         5428138                       # number of overall hits (Count)
system.cpu0.icache.demandMisses::cpu0.inst         3506                       # number of demand (read+write) misses (Count)
system.cpu0.icache.demandMisses::total           3506                       # number of demand (read+write) misses (Count)
system.cpu0.icache.overallMisses::cpu0.inst         3506                       # number of overall misses (Count)
system.cpu0.icache.overallMisses::total          3506                       # number of overall misses (Count)
system.cpu0.icache.demandMissLatency::cpu0.inst    242856498                       # number of demand (read+write) miss ticks (Tick)
system.cpu0.icache.demandMissLatency::total    242856498                       # number of demand (read+write) miss ticks (Tick)
system.cpu0.icache.overallMissLatency::cpu0.inst    242856498                       # number of overall miss ticks (Tick)
system.cpu0.icache.overallMissLatency::total    242856498                       # number of overall miss ticks (Tick)
system.cpu0.icache.demandAccesses::cpu0.inst      5431644                       # number of demand (read+write) accesses (Count)
system.cpu0.icache.demandAccesses::total      5431644                       # number of demand (read+write) accesses (Count)
system.cpu0.icache.overallAccesses::cpu0.inst      5431644                       # number of overall (read+write) accesses (Count)
system.cpu0.icache.overallAccesses::total      5431644                       # number of overall (read+write) accesses (Count)
system.cpu0.icache.demandMissRate::cpu0.inst     0.000645                       # miss rate for demand accesses (Ratio)
system.cpu0.icache.demandMissRate::total     0.000645                       # miss rate for demand accesses (Ratio)
system.cpu0.icache.overallMissRate::cpu0.inst     0.000645                       # miss rate for overall accesses (Ratio)
system.cpu0.icache.overallMissRate::total     0.000645                       # miss rate for overall accesses (Ratio)
system.cpu0.icache.demandAvgMissLatency::cpu0.inst 69268.824301                       # average overall miss latency in ticks ((Tick/Count))
system.cpu0.icache.demandAvgMissLatency::total 69268.824301                       # average overall miss latency in ticks ((Tick/Count))
system.cpu0.icache.overallAvgMissLatency::cpu0.inst 69268.824301                       # average overall miss latency ((Tick/Count))
system.cpu0.icache.overallAvgMissLatency::total 69268.824301                       # average overall miss latency ((Tick/Count))
system.cpu0.icache.blockedCycles::no_mshrs         1239                       # number of cycles access was blocked (Cycle)
system.cpu0.icache.blockedCycles::no_targets            0                       # number of cycles access was blocked (Cycle)
system.cpu0.icache.blockedCauses::no_mshrs           13                       # number of times access was blocked (Count)
system.cpu0.icache.blockedCauses::no_targets            0                       # number of times access was blocked (Count)
system.cpu0.icache.avgBlocked::no_mshrs     95.307692                       # average number of cycles each access was blocked ((Cycle/Count))
system.cpu0.icache.avgBlocked::no_targets          nan                       # average number of cycles each access was blocked ((Cycle/Count))
system.cpu0.icache.writebacks::writebacks         2230                       # number of writebacks (Count)
system.cpu0.icache.writebacks::total             2230                       # number of writebacks (Count)
system.cpu0.icache.demandMshrHits::cpu0.inst          757                       # number of demand (read+write) MSHR hits (Count)
system.cpu0.icache.demandMshrHits::total          757                       # number of demand (read+write) MSHR hits (Count)
system.cpu0.icache.overallMshrHits::cpu0.inst          757                       # number of overall MSHR hits (Count)
system.cpu0.icache.overallMshrHits::total          757                       # number of overall MSHR hits (Count)
system.cpu0.icache.demandMshrMisses::cpu0.inst         2749                       # number of demand (read+write) MSHR misses (Count)
system.cpu0.icache.demandMshrMisses::total         2749                       # number of demand (read+write) MSHR misses (Count)
system.cpu0.icache.overallMshrMisses::cpu0.inst         2749                       # number of overall MSHR misses (Count)
system.cpu0.icache.overallMshrMisses::total         2749                       # number of overall MSHR misses (Count)
system.cpu0.icache.demandMshrMissLatency::cpu0.inst    196282249                       # number of demand (read+write) MSHR miss ticks (Tick)
system.cpu0.icache.demandMshrMissLatency::total    196282249                       # number of demand (read+write) MSHR miss ticks (Tick)
system.cpu0.icache.overallMshrMissLatency::cpu0.inst    196282249                       # number of overall MSHR miss ticks (Tick)
system.cpu0.icache.overallMshrMissLatency::total    196282249                       # number of overall MSHR miss ticks (Tick)
system.cpu0.icache.demandMshrMissRate::cpu0.inst     0.000506                       # mshr miss ratio for demand accesses (Ratio)
system.cpu0.icache.demandMshrMissRate::total     0.000506                       # mshr miss ratio for demand accesses (Ratio)
system.cpu0.icache.overallMshrMissRate::cpu0.inst     0.000506                       # mshr miss ratio for overall accesses (Ratio)
system.cpu0.icache.overallMshrMissRate::total     0.000506                       # mshr miss ratio for overall accesses (Ratio)
system.cpu0.icache.demandAvgMshrMissLatency::cpu0.inst 71401.327392                       # average overall mshr miss latency ((Tick/Count))
system.cpu0.icache.demandAvgMshrMissLatency::total 71401.327392                       # average overall mshr miss latency ((Tick/Count))
system.cpu0.icache.overallAvgMshrMissLatency::cpu0.inst 71401.327392                       # average overall mshr miss latency ((Tick/Count))
system.cpu0.icache.overallAvgMshrMissLatency::total 71401.327392                       # average overall mshr miss latency ((Tick/Count))
system.cpu0.icache.replacements                  2230                       # number of replacements (Count)
system.cpu0.icache.ReadReq.hits::cpu0.inst      5428138                       # number of ReadReq hits (Count)
system.cpu0.icache.ReadReq.hits::total        5428138                       # number of ReadReq hits (Count)
system.cpu0.icache.ReadReq.misses::cpu0.inst         3506                       # number of ReadReq misses (Count)
system.cpu0.icache.ReadReq.misses::total         3506                       # number of ReadReq misses (Count)
system.cpu0.icache.ReadReq.missLatency::cpu0.inst    242856498                       # number of ReadReq miss ticks (Tick)
system.cpu0.icache.ReadReq.missLatency::total    242856498                       # number of ReadReq miss ticks (Tick)
system.cpu0.icache.ReadReq.accesses::cpu0.inst      5431644                       # number of ReadReq accesses(hits+misses) (Count)
system.cpu0.icache.ReadReq.accesses::total      5431644                       # number of ReadReq accesses(hits+misses) (Count)
system.cpu0.icache.ReadReq.missRate::cpu0.inst     0.000645                       # miss rate for ReadReq accesses (Ratio)
system.cpu0.icache.ReadReq.missRate::total     0.000645                       # miss rate for ReadReq accesses (Ratio)
system.cpu0.icache.ReadReq.avgMissLatency::cpu0.inst 69268.824301                       # average ReadReq miss latency ((Tick/Count))
system.cpu0.icache.ReadReq.avgMissLatency::total 69268.824301                       # average ReadReq miss latency ((Tick/Count))
system.cpu0.icache.ReadReq.mshrHits::cpu0.inst          757                       # number of ReadReq MSHR hits (Count)
system.cpu0.icache.ReadReq.mshrHits::total          757                       # number of ReadReq MSHR hits (Count)
system.cpu0.icache.ReadReq.mshrMisses::cpu0.inst         2749                       # number of ReadReq MSHR misses (Count)
system.cpu0.icache.ReadReq.mshrMisses::total         2749                       # number of ReadReq MSHR misses (Count)
system.cpu0.icache.ReadReq.mshrMissLatency::cpu0.inst    196282249                       # number of ReadReq MSHR miss ticks (Tick)
system.cpu0.icache.ReadReq.mshrMissLatency::total    196282249                       # number of ReadReq MSHR miss ticks (Tick)
system.cpu0.icache.ReadReq.mshrMissRate::cpu0.inst     0.000506                       # mshr miss rate for ReadReq accesses (Ratio)
system.cpu0.icache.ReadReq.mshrMissRate::total     0.000506                       # mshr miss rate for ReadReq accesses (Ratio)
system.cpu0.icache.ReadReq.avgMshrMissLatency::cpu0.inst 71401.327392                       # average ReadReq mshr miss latency ((Tick/Count))
system.cpu0.icache.ReadReq.avgMshrMissLatency::total 71401.327392                       # average ReadReq mshr miss latency ((Tick/Count))
system.cpu0.icache.power_state.pwrStateResidencyTicks::UNDEFINED  47415580500                       # Cumulative time (in ticks) in various power states (Tick)
system.cpu0.icache.tags.tagsInUse          509.209308                       # Average ticks per tags in use ((Tick/Count))
system.cpu0.icache.tags.totalRefs             5430886                       # Total number of references to valid blocks. (Count)
system.cpu0.icache.tags.sampledRefs              2748                       # Sample count of references to valid blocks. (Count)
system.cpu0.icache.tags.avgRefs           1976.304949                       # Average number of references to valid blocks. ((Count/Count))
system.cpu0.icache.tags.warmupTick              80000                       # The tick when the warmup percentage was hit. (Tick)
system.cpu0.icache.tags.occupancies::cpu0.inst   509.209308                       # Average occupied blocks per tick, per requestor ((Count/Tick))
system.cpu0.icache.tags.avgOccs::cpu0.inst     0.994549                       # Average percentage of cache occupancy ((Ratio/Tick))
system.cpu0.icache.tags.avgOccs::total       0.994549                       # Average percentage of cache occupancy ((Ratio/Tick))
system.cpu0.icache.tags.occupanciesTaskId::1024          512                       # Occupied blocks per task id (Count)
system.cpu0.icache.tags.ageTaskId_1024::0          112                       # Occupied blocks per task id, per block age (Count)
system.cpu0.icache.tags.ageTaskId_1024::1           71                       # Occupied blocks per task id, per block age (Count)
system.cpu0.icache.tags.ageTaskId_1024::4          329                       # Occupied blocks per task id, per block age (Count)
system.cpu0.icache.tags.ratioOccsTaskId::1024            1                       # Ratio of occupied blocks and all blocks, per task id (Ratio)
system.cpu0.icache.tags.tagAccesses          10866036                       # Number of tag accesses (Count)
system.cpu0.icache.tags.dataAccesses         10866036                       # Number of data accesses (Count)
system.cpu0.icache.tags.power_state.pwrStateResidencyTicks::UNDEFINED  47415580500                       # Cumulative time (in ticks) in various power states (Tick)
system.cpu0.iew.idleCycles                          0                       # Number of cycles IEW is idle (Cycle)
system.cpu0.iew.squashCycles                   262428                       # Number of cycles IEW is squashing (Cycle)
system.cpu0.iew.blockCycles                  32845749                       # Number of cycles IEW is blocking (Cycle)
system.cpu0.iew.unblockCycles                12757114                       # Number of cycles IEW is unblocking (Cycle)
system.cpu0.iew.dispatchedInsts              77595104                       # Number of instructions dispatched to IQ (Count)
system.cpu0.iew.dispSquashedInsts                1003                       # Number of squashed instructions skipped by dispatch (Count)
system.cpu0.iew.dispLoadInsts                15780275                       # Number of dispatched load instructions (Count)
system.cpu0.iew.dispStoreInsts               10823123                       # Number of dispatched store instructions (Count)
system.cpu0.iew.dispNonSpecInsts                  573                       # Number of dispatched non-speculative instructions (Count)
system.cpu0.iew.iqFullEvents                     4269                       # Number of times the IQ has become full, causing a stall (Count)
system.cpu0.iew.lsqFullEvents                12678818                       # Number of times the LSQ has become full, causing a stall (Count)
system.cpu0.iew.memOrderViolationEvents           342                       # Number of memory order violations (Count)
system.cpu0.iew.predictedTakenIncorrect          2766                       # Number of branches that were predicted taken incorrectly (Count)
system.cpu0.iew.predictedNotTakenIncorrect         8280                       # Number of branches that were predicted not taken incorrectly (Count)
system.cpu0.iew.branchMispredicts               11046                       # Number of branch mispredicts detected at execute (Count)
system.cpu0.iew.instsToCommit                77427219                       # Cumulative count of insts sent to commit (Count)
[...]
system.membus.pktCount_system.cpu7.icache.mem_side_port::system.mem_ctrls1.port           77                       # Packet count per connected requestor and responder (Count)
system.membus.pktCount_system.cpu7.icache.mem_side_port::total          164                       # Packet count per connected requestor and responder (Count)
system.membus.pktCount_system.cpu7.dcache.mem_side_port::system.mem_ctrls0.port      1031209                       # Packet count per connected requestor and responder (Count)
system.membus.pktCount_system.cpu7.dcache.mem_side_port::system.mem_ctrls1.port      1031257                       # Packet count per connected requestor and responder (Count)
system.membus.pktCount_system.cpu7.dcache.mem_side_port::total      2062466                       # Packet count per connected requestor and responder (Count)
system.membus.pktCount::total                17651654                       # Packet count per connected requestor and responder (Count)
system.membus.pktSize_system.cpu0.icache.mem_side_port::system.mem_ctrls0.port       157504                       # Cumulative packet size per connected requestor and responder (Byte)
system.membus.pktSize_system.cpu0.icache.mem_side_port::system.mem_ctrls1.port       160768                       # Cumulative packet size per connected requestor and responder (Byte)
system.membus.pktSize_system.cpu0.icache.mem_side_port::total       318272                       # Cumulative packet size per connected requestor and responder (Byte)
system.membus.pktSize_system.cpu0.dcache.mem_side_port::system.mem_ctrls0.port     44247488                       # Cumulative packet size per connected requestor and responder (Byte)
system.membus.pktSize_system.cpu0.dcache.mem_side_port::system.mem_ctrls1.port     44235520                       # Cumulative packet size per connected requestor and responder (Byte)
system.membus.pktSize_system.cpu0.dcache.mem_side_port::total     88483008                       # Cumulative packet size per connected requestor and responder (Byte)
system.membus.pktSize_system.cpu1.icache.mem_side_port::system.mem_ctrls0.port         4736                       # Cumulative packet size per connected requestor and responder (Byte)
system.membus.pktSize_system.cpu1.icache.mem_side_port::system.mem_ctrls1.port         4736                       # Cumulative packet size per connected requestor and responder (Byte)
system.membus.pktSize_system.cpu1.icache.mem_side_port::total         9472                       # Cumulative packet size per connected requestor and responder (Byte)
system.membus.pktSize_system.cpu1.dcache.mem_side_port::system.mem_ctrls0.port     32010496                       # Cumulative packet size per connected requestor and responder (Byte)
system.membus.pktSize_system.cpu1.dcache.mem_side_port::system.mem_ctrls1.port     32009088                       # Cumulative packet size per connected requestor and responder (Byte)
system.membus.pktSize_system.cpu1.dcache.mem_side_port::total     64019584                       # Cumulative packet size per connected requestor and responder (Byte)
system.membus.pktSize_system.cpu2.icache.mem_side_port::system.mem_ctrls0.port         4672                       # Cumulative packet size per connected requestor and responder (Byte)
system.membus.pktSize_system.cpu2.icache.mem_side_port::system.mem_ctrls1.port         4608                       # Cumulative packet size per connected requestor and responder (Byte)
system.membus.pktSize_system.cpu2.icache.mem_side_port::total         9280                       # Cumulative packet size per connected requestor and responder (Byte)
system.membus.pktSize_system.cpu2.dcache.mem_side_port::system.mem_ctrls0.port     32008256                       # Cumulative packet size per connected requestor and responder (Byte)
system.membus.pktSize_system.cpu2.dcache.mem_side_port::system.mem_ctrls1.port     32009600                       # Cumulative packet size per connected requestor and responder (Byte)
system.membus.pktSize_system.cpu2.dcache.mem_side_port::total     64017856                       # Cumulative packet size per connected requestor and responder (Byte)
system.membus.pktSize_system.cpu3.icache.mem_side_port::system.mem_ctrls0.port         4288                       # Cumulative packet size per connected requestor and responder (Byte)
system.membus.pktSize_system.cpu3.icache.mem_side_port::system.mem_ctrls1.port         4288                       # Cumulative packet size per connected requestor and responder (Byte)
system.membus.pktSize_system.cpu3.icache.mem_side_port::total         8576                       # Cumulative packet size per connected requestor and responder (Byte)
system.membus.pktSize_system.cpu3.dcache.mem_side_port::system.mem_ctrls0.port     32007296                       # Cumulative packet size per connected requestor and responder (Byte)
system.membus.pktSize_system.cpu3.dcache.mem_side_port::system.mem_ctrls1.port     32008896                       # Cumulative packet size per connected requestor and responder (Byte)
system.membus.pktSize_system.cpu3.dcache.mem_side_port::total     64016192                       # Cumulative packet size per connected requestor and responder (Byte)
system.membus.pktSize_system.cpu4.icache.mem_side_port::system.mem_ctrls0.port         2688                       # Cumulative packet size per connected requestor and responder (Byte)
system.membus.pktSize_system.cpu4.icache.mem_side_port::system.mem_ctrls1.port         2496                       # Cumulative packet size per connected requestor and responder (Byte)
system.membus.pktSize_system.cpu4.icache.mem_side_port::total         5184                       # Cumulative packet size per connected requestor and responder (Byte)
system.membus.pktSize_system.cpu4.dcache.mem_side_port::system.mem_ctrls0.port     32005056                       # Cumulative packet size per connected requestor and responder (Byte)
system.membus.pktSize_system.cpu4.dcache.mem_side_port::system.mem_ctrls1.port     32004992                       # Cumulative packet size per connected requestor and responder (Byte)
system.membus.pktSize_system.cpu4.dcache.mem_side_port::total     64010048                       # Cumulative packet size per connected requestor and responder (Byte)
system.membus.pktSize_system.cpu5.icache.mem_side_port::system.mem_ctrls0.port         2496                       # Cumulative packet size per connected requestor and responder (Byte)
system.membus.pktSize_system.cpu5.icache.mem_side_port::system.mem_ctrls1.port         2304                       # Cumulative packet size per connected requestor and responder (Byte)
system.membus.pktSize_system.cpu5.icache.mem_side_port::total         4800                       # Cumulative packet size per connected requestor and responder (Byte)
system.membus.pktSize_system.cpu5.dcache.mem_side_port::system.mem_ctrls0.port     32005440                       # Cumulative packet size per connected requestor and responder (Byte)
system.membus.pktSize_system.cpu5.dcache.mem_side_port::system.mem_ctrls1.port     32004288                       # Cumulative packet size per connected requestor and responder (Byte)
system.membus.pktSize_system.cpu5.dcache.mem_side_port::total     64009728                       # Cumulative packet size per connected requestor and responder (Byte)
system.membus.pktSize_system.cpu6.icache.mem_side_port::system.mem_ctrls0.port         2816                       # Cumulative packet size per connected requestor and responder (Byte)
system.membus.pktSize_system.cpu6.icache.mem_side_port::system.mem_ctrls1.port         2560                       # Cumulative packet size per connected requestor and responder (Byte)
system.membus.pktSize_system.cpu6.icache.mem_side_port::total         5376                       # Cumulative packet size per connected requestor and responder (Byte)
system.membus.pktSize_system.cpu6.dcache.mem_side_port::system.mem_ctrls0.port     32004608                       # Cumulative packet size per connected requestor and responder (Byte)
system.membus.pktSize_system.cpu6.dcache.mem_side_port::system.mem_ctrls1.port     32006400                       # Cumulative packet size per connected requestor and responder (Byte)
system.membus.pktSize_system.cpu6.dcache.mem_side_port::total     64011008                       # Cumulative packet size per connected requestor and responder (Byte)
system.membus.pktSize_system.cpu7.icache.mem_side_port::system.mem_ctrls0.port         2688                       # Cumulative packet size per connected requestor and responder (Byte)
system.membus.pktSize_system.cpu7.icache.mem_side_port::system.mem_ctrls1.port         2496                       # Cumulative packet size per connected requestor and responder (Byte)
system.membus.pktSize_system.cpu7.icache.mem_side_port::total         5184                       # Cumulative packet size per connected requestor and responder (Byte)
system.membus.pktSize_system.cpu7.dcache.mem_side_port::system.mem_ctrls0.port     32006144                       # Cumulative packet size per connected requestor and responder (Byte)
system.membus.pktSize_system.cpu7.dcache.mem_side_port::system.mem_ctrls1.port     32004544                       # Cumulative packet size per connected requestor and responder (Byte)
system.membus.pktSize_system.cpu7.dcache.mem_side_port::total     64010688                       # Cumulative packet size per connected requestor and responder (Byte)
system.membus.pktSize::total                536944256                       # Cumulative packet size per connected requestor and responder (Byte)
system.membus.snoops                             2674                       # Total snoops (Count)
system.membus.snoopTraffic                     158784                       # Total snoop traffic (Byte)
system.membus.snoopFanout::samples            5888484                       # Request fanout histogram (Count)
system.membus.snoopFanout::mean              0.003386                       # Request fanout histogram (Count)
system.membus.snoopFanout::stdev             0.108337                       # Request fanout histogram (Count)
system.membus.snoopFanout::underflows               0      0.00%      0.00% # Request fanout histogram (Count)
system.membus.snoopFanout::0                  5877103     99.81%     99.81% # Request fanout histogram (Count)
system.membus.snoopFanout::1                     9048      0.15%     99.96% # Request fanout histogram (Count)
system.membus.snoopFanout::2                      458      0.01%     99.97% # Request fanout histogram (Count)
system.membus.snoopFanout::3                      404      0.01%     99.98% # Request fanout histogram (Count)
system.membus.snoopFanout::4                      277      0.00%     99.98% # Request fanout histogram (Count)
system.membus.snoopFanout::5                      259      0.00%     99.98% # Request fanout histogram (Count)
system.membus.snoopFanout::6                      255      0.00%     99.99% # Request fanout histogram (Count)
system.membus.snoopFanout::7                      649      0.01%    100.00% # Request fanout histogram (Count)
system.membus.snoopFanout::8                       17      0.00%    100.00% # Request fanout histogram (Count)
system.membus.snoopFanout::9                        4      0.00%    100.00% # Request fanout histogram (Count)
system.membus.snoopFanout::10                       3      0.00%    100.00% # Request fanout histogram (Count)
system.membus.snoopFanout::11                       2      0.00%    100.00% # Request fanout histogram (Count)
system.membus.snoopFanout::12                       2      0.00%    100.00% # Request fanout histogram (Count)
system.membus.snoopFanout::13                       2      0.00%    100.00% # Request fanout histogram (Count)
system.membus.snoopFanout::14                       1      0.00%    100.00% # Request fanout histogram (Count)
system.membus.snoopFanout::15                       0      0.00%    100.00% # Request fanout histogram (Count)
system.membus.snoopFanout::16                       0      0.00%    100.00% # Request fanout histogram (Count)
system.membus.snoopFanout::17                       0      0.00%    100.00% # Request fanout histogram (Count)
system.membus.snoopFanout::18                       0      0.00%    100.00% # Request fanout histogram (Count)
system.membus.snoopFanout::19                       0      0.00%    100.00% # Request fanout histogram (Count)
system.membus.snoopFanout::20                       0      0.00%    100.00% # Request fanout histogram (Count)
system.membus.snoopFanout::21                       0      0.00%    100.00% # Request fanout histogram (Count)
system.membus.snoopFanout::22                       0      0.00%    100.00% # Request fanout histogram (Count)
system.membus.snoopFanout::23                       0      0.00%    100.00% # Request fanout histogram (Count)
system.membus.snoopFanout::24                       0      0.00%    100.00% # Request fanout histogram (Count)
system.membus.snoopFanout::25                       0      0.00%    100.00% # Request fanout histogram (Count)
system.membus.snoopFanout::26                       0      0.00%    100.00% # Request fanout histogram (Count)
system.membus.snoopFanout::27                       0      0.00%    100.00% # Request fanout histogram (Count)
system.membus.snoopFanout::28                       0      0.00%    100.00% # Request fanout histogram (Count)
system.membus.snoopFanout::29                       0      0.00%    100.00% # Request fanout histogram (Count)
system.membus.snoopFanout::30                       0      0.00%    100.00% # Request fanout histogram (Count)
system.membus.snoopFanout::31                       0      0.00%    100.00% # Request fanout histogram (Count)
system.membus.snoopFanout::32                       0      0.00%    100.00% # Request fanout histogram (Count)
system.membus.snoopFanout::overflows                0      0.00%    100.00% # Request fanout histogram (Count)
system.membus.snoopFanout::min_value                0                       # Request fanout histogram (Count)
system.membus.snoopFanout::max_value               14                       # Request fanout histogram (Count)
system.membus.snoopFanout::total              5888484                       # Request fanout histogram (Count)
system.membus.power_state.pwrStateResidencyTicks::UNDEFINED  47415580500                       # Cumulative time (in ticks) in various power states (Tick)
system.membus.reqLayer16.occupancy        12516260967                       # Layer occupancy (ticks) (Tick)
system.membus.reqLayer16.utilization              0.3                       # Layer utilization (Ratio)
system.membus.reqLayer17.occupancy        12518448310                       # Layer occupancy (ticks) (Tick)
system.membus.reqLayer17.utilization              0.3                       # Layer utilization (Ratio)
system.membus.respLayer1.occupancy           13935739                       # Layer occupancy (ticks) (Tick)
system.membus.respLayer1.utilization              0.0                       # Layer utilization (Ratio)
system.membus.respLayer11.occupancy            780241                       # Layer occupancy (ticks) (Tick)
system.membus.respLayer11.utilization             0.0                       # Layer utilization (Ratio)
system.membus.respLayer12.occupancy        3566211382                       # Layer occupancy (ticks) (Tick)
system.membus.respLayer12.utilization             0.1                       # Layer utilization (Ratio)
system.membus.respLayer16.occupancy            743992                       # Layer occupancy (ticks) (Tick)
system.membus.respLayer16.utilization             0.0                       # Layer utilization (Ratio)
system.membus.respLayer17.occupancy        3565391920                       # Layer occupancy (ticks) (Tick)
system.membus.respLayer17.utilization             0.1                       # Layer utilization (Ratio)
system.membus.respLayer2.occupancy         5475829818                       # Layer occupancy (ticks) (Tick)
system.membus.respLayer2.utilization              0.1                       # Layer utilization (Ratio)
system.membus.respLayer21.occupancy            463742                       # Layer occupancy (ticks) (Tick)
system.membus.respLayer21.utilization             0.0                       # Layer utilization (Ratio)
system.membus.respLayer22.occupancy        3565131552                       # Layer occupancy (ticks) (Tick)
system.membus.respLayer22.utilization             0.1                       # Layer utilization (Ratio)
system.membus.respLayer26.occupancy            439993                       # Layer occupancy (ticks) (Tick)
system.membus.respLayer26.utilization             0.0                       # Layer utilization (Ratio)
system.membus.respLayer27.occupancy        3565511372                       # Layer occupancy (ticks) (Tick)
system.membus.respLayer27.utilization             0.1                       # Layer utilization (Ratio)
system.membus.respLayer31.occupancy            467244                       # Layer occupancy (ticks) (Tick)
system.membus.respLayer31.utilization             0.0                       # Layer utilization (Ratio)
system.membus.respLayer32.occupancy        3564492972                       # Layer occupancy (ticks) (Tick)
system.membus.respLayer32.utilization             0.1                       # Layer utilization (Ratio)
system.membus.respLayer36.occupancy            447993                       # Layer occupancy (ticks) (Tick)
system.membus.respLayer36.utilization             0.0                       # Layer utilization (Ratio)
system.membus.respLayer37.occupancy        3565012964                       # Layer occupancy (ticks) (Tick)
system.membus.respLayer37.utilization             0.1                       # Layer utilization (Ratio)
system.membus.respLayer6.occupancy             786493                       # Layer occupancy (ticks) (Tick)
system.membus.respLayer6.utilization              0.0                       # Layer utilization (Ratio)
system.membus.respLayer7.occupancy         3569514462                       # Layer occupancy (ticks) (Tick)
system.membus.respLayer7.utilization              0.1                       # Layer utilization (Ratio)
system.membus.snoop_filter.totRequests       11767317                       # Total number of requests made to the snoop filter. (Count)
system.membus.snoop_filter.hitSingleRequests      5879213                       # Number of requests hitting in the snoop filter with a single holder of the requested data. (Count)
system.membus.snoop_filter.hitMultiRequests        11194                       # Number of requests hitting in the snoop filter with multiple (>1) holders of the requested data. (Count)
system.membus.snoop_filter.totSnoops                0                       # Total number of snoops made to the snoop filter. (Count)
system.membus.snoop_filter.hitSingleSnoops            0                       # Number of snoops hitting in the snoop filter with a single holder of the requested data. (Count)
system.membus.snoop_filter.hitMultiSnoops            0                       # Number of snoops hitting in the snoop filter with multiple (>1) holders of the requested data. (Count)
system.voltage_domain.voltage                       1                       # Voltage in Volts (Volt)
system.workload.inst.arm                            0                       # number of arm instructions executed (Count)
system.workload.inst.quiesce                        0                       # number of quiesce instructions executed (Count)

---------- End Simulation Statistics   ----------
