
---------- Begin Simulation Statistics ----------
simSeconds                                  11.876465                       # Number of seconds simulated (Second)
simTicks                                 11876465455000                       # Number of ticks simulated (Tick)
finalTick                                11876465455000                       # Number of ticks from beginning of simulation (restored from checkpoints and never reset) (Tick)
simFreq                                  1000000000000                       # The number of ticks per simulated second ((Tick/Second))
hostSeconds                                    720.77                       # Real time elapsed on the host (Second)
hostTickRate                              16477466239                       # The number of ticks simulated per host second (ticks/s) ((Tick/Second))
hostMemory                                     670980                       # Number of bytes of host memory used (Byte)
simInsts                                    103237224                       # Number of instructions simulated (Count)
simOps                                      204441939                       # Number of ops (including micro ops) simulated (Count)
hostInstRate                                   143232                       # Simulator instruction rate (inst/s) ((Count/Second))
hostOpRate                                     283644                       # Simulator op (including micro ops) rate (op/s) ((Count/Second))
system.clk_domain.clock                          1000                       # Clock period in ticks (Tick)
system.cpu.numCycles                      47505861820                       # Number of cpu cycles simulated (Cycle)
system.cpu.numWorkItemsStarted                      0                       # Number of work items this cpu started (Count)
system.cpu.numWorkItemsCompleted                    0                       # Number of work items this cpu completed (Count)
system.cpu.exec_context.thread_0.numInsts    103237224                       # Number of instructions committed (Count)
system.cpu.exec_context.thread_0.numOps     204441939                       # Number of ops (including micro ops) committed (Count)
system.cpu.exec_context.thread_0.numIntAluAccesses    163432941                       # Number of integer alu accesses (Count)
system.cpu.exec_context.thread_0.numFpAluAccesses     83009918                       # Number of float alu accesses (Count)
system.cpu.exec_context.thread_0.numVecAluAccesses            0                       # Number of vector alu accesses (Count)
system.cpu.exec_context.thread_0.numCallsReturns         3786                       # Number of times a function call or return occured (Count)
system.cpu.exec_context.thread_0.numCondCtrlInsts     18043959                       # Number of instructions that are conditional controls (Count)
system.cpu.exec_context.thread_0.numIntInsts    163432941                       # Number of integer instructions (Count)
system.cpu.exec_context.thread_0.numFpInsts     83009918                       # Number of float instructions (Count)
system.cpu.exec_context.thread_0.numVecInsts            0                       # Number of vector instructions (Count)
system.cpu.exec_context.thread_0.numIntRegReads    179566104                       # Number of times the integer registers were read (Count)
system.cpu.exec_context.thread_0.numIntRegWrites     87318887                       # Number of times the integer registers were written (Count)
system.cpu.exec_context.thread_0.numFpRegReads     90013954                       # Number of times the floating registers were read (Count)
system.cpu.exec_context.thread_0.numFpRegWrites     65007391                       # Number of times the floating registers were written (Count)
system.cpu.exec_context.thread_0.numVecRegReads            0                       # Number of times the vector registers were read (Count)
system.cpu.exec_context.thread_0.numVecRegWrites            0                       # Number of times the vector registers were written (Count)
system.cpu.exec_context.thread_0.numVecPredRegReads            0                       # Number of times the predicate registers were read (Count)
system.cpu.exec_context.thread_0.numVecPredRegWrites            0                       # Number of times the predicate registers were written (Count)
system.cpu.exec_context.thread_0.numCCRegReads     96275400                       # Number of times the CC registers were read (Count)
system.cpu.exec_context.thread_0.numCCRegWrites     66171895                       # Number of times the CC registers were written (Count)
system.cpu.exec_context.thread_0.numMiscRegReads     84180007                       # Number of times the Misc registers were read (Count)
system.cpu.exec_context.thread_0.numMiscRegWrites           18                       # Number of times the Misc registers were written (Count)
system.cpu.exec_context.thread_0.numMemRefs     43074746                       # Number of memory refs (Count)
system.cpu.exec_context.thread_0.numLoadInsts     27054144                       # Number of load instructions (Count)
system.cpu.exec_context.thread_0.numStoreInsts     16020602                       # Number of store instructions (Count)
system.cpu.exec_context.thread_0.numIdleCycles     0.003998                       # Number of idle cycles (Cycle)
system.cpu.exec_context.thread_0.numBusyCycles 47505861819.996002                       # Number of busy cycles (Cycle)
system.cpu.exec_context.thread_0.notIdleFraction     1.000000                       # Percentage of non-idle cycles (Ratio)
system.cpu.exec_context.thread_0.idleFraction     0.000000                       # Percentage of idle cycles (Ratio)
system.cpu.exec_context.thread_0.numBranches     18053475                       # Number of branches fetched (Count)
system.cpu.exec_context.thread_0.statExecutedInstType::No_OpClass         2750      0.00%      0.00% # Class of executed instruction. (Count)
system.cpu.exec_context.thread_0.statExecutedInstType::IntAlu    126357057     61.81%     61.81% # Class of executed instruction. (Count)
system.cpu.exec_context.thread_0.statExecutedInstType::IntMult          202      0.00%     61.81% # Class of executed instruction. (Count)
system.cpu.exec_context.thread_0.statExecutedInstType::IntDiv         1555      0.00%     61.81% # Class of executed instruction. (Count)
system.cpu.exec_context.thread_0.statExecutedInstType::FloatAdd     13000561      6.36%     68.17% # Class of executed instruction. (Count)
system.cpu.exec_context.thread_0.statExecutedInstType::FloatCmp            0      0.00%     68.17% # Class of executed instruction. (Count)
system.cpu.exec_context.thread_0.statExecutedInstType::FloatCvt           32      0.00%     68.17% # Class of executed instruction. (Count)
system.cpu.exec_context.thread_0.statExecutedInstType::FloatMult            0      0.00%     68.17% # Class of executed instruction. (Count)
system.cpu.exec_context.thread_0.statExecutedInstType::FloatMultAcc            0      0.00%     68.17% # Class of executed instruction. (Count)
system.cpu.exec_context.thread_0.statExecutedInstType::FloatDiv            0      0.00%     68.17% # Class of executed instruction. (Count)
system.cpu.exec_context.thread_0.statExecutedInstType::FloatMisc            0      0.00%     68.17% # Class of executed instruction. (Count)
system.cpu.exec_context.thread_0.statExecutedInstType::FloatSqrt            0      0.00%     68.17% # Class of executed instruction. (Count)
system.cpu.exec_context.thread_0.statExecutedInstType::SimdAdd          328      0.00%     68.17% # Class of executed instruction. (Count)
system.cpu.exec_context.thread_0.statExecutedInstType::SimdAddAcc            0      0.00%     68.17% # Class of executed instruction. (Count)
system.cpu.exec_context.thread_0.statExecutedInstType::SimdAlu         1553      0.00%     68.17% # Class of executed instruction. (Count)
system.cpu.exec_context.thread_0.statExecutedInstType::SimdCmp            6      0.00%     68.17% # Class of executed instruction. (Count)
system.cpu.exec_context.thread_0.statExecutedInstType::SimdCvt         1210      0.00%     68.17% # Class of executed instruction. (Count)
system.cpu.exec_context.thread_0.statExecutedInstType::SimdMisc         1561      0.00%     68.17% # Class of executed instruction. (Count)
system.cpu.exec_context.thread_0.statExecutedInstType::SimdMult            0      0.00%     68.17% # Class of executed instruction. (Count)
system.cpu.exec_context.thread_0.statExecutedInstType::SimdMultAcc            0      0.00%     68.17% # Class of executed instruction. (Count)
system.cpu.exec_context.thread_0.statExecutedInstType::SimdShift           99      0.00%     68.17% # Class of executed instruction. (Count)
system.cpu.exec_context.thread_0.statExecutedInstType::SimdShiftAcc            0      0.00%     68.17% # Class of executed instruction. (Count)
system.cpu.exec_context.thread_0.statExecutedInstType::SimdDiv            0      0.00%     68.17% # Class of executed instruction. (Count)
system.cpu.exec_context.thread_0.statExecutedInstType::SimdSqrt            0      0.00%     68.17% # Class of executed instruction. (Count)
system.cpu.exec_context.thread_0.statExecutedInstType::SimdFloatAdd     13000126      6.36%     74.53% # Class of executed instruction. (Count)
system.cpu.exec_context.thread_0.statExecutedInstType::SimdFloatAlu            0      0.00%     74.53% # Class of executed instruction. (Count)
system.cpu.exec_context.thread_0.statExecutedInstType::SimdFloatCmp           16      0.00%     74.53% # Class of executed instruction. (Count)
system.cpu.exec_context.thread_0.statExecutedInstType::SimdFloatCvt      3000222      1.47%     76.00% # Class of executed instruction. (Count)
system.cpu.exec_context.thread_0.statExecutedInstType::SimdFloatDiv           11      0.00%     76.00% # Class of executed instruction. (Count)
system.cpu.exec_context.thread_0.statExecutedInstType::SimdFloatMisc            0      0.00%     76.00% # Class of executed instruction. (Count)
system.cpu.exec_context.thread_0.statExecutedInstType::SimdFloatMult      6000094      2.93%     78.93% # Class of executed instruction. (Count)
system.cpu.exec_context.thread_0.statExecutedInstType::SimdFloatMultAcc            0      0.00%     78.93% # Class of executed instruction. (Count)
system.cpu.exec_context.thread_0.statExecutedInstType::SimdFloatSqrt            0      0.00%     78.93% # Class of executed instruction. (Count)
system.cpu.exec_context.thread_0.statExecutedInstType::SimdReduceAdd            0      0.00%     78.93% # Class of executed instruction. (Count)
system.cpu.exec_context.thread_0.statExecutedInstType::SimdReduceAlu            0      0.00%     78.93% # Class of executed instruction. (Count)
system.cpu.exec_context.thread_0.statExecutedInstType::SimdReduceCmp            0      0.00%     78.93% # Class of executed instruction. (Count)
system.cpu.exec_context.thread_0.statExecutedInstType::SimdFloatReduceAdd            0      0.00%     78.93% # Class of executed instruction. (Count)
system.cpu.exec_context.thread_0.statExecutedInstType::SimdFloatReduceCmp            0      0.00%     78.93% # Class of executed instruction. (Count)
system.cpu.exec_context.thread_0.statExecutedInstType::SimdAes            0      0.00%     78.93% # Class of executed instruction. (Count)
system.cpu.exec_context.thread_0.statExecutedInstType::SimdAesMix            0      0.00%     78.93% # Class of executed instruction. (Count)
system.cpu.exec_context.thread_0.statExecutedInstType::SimdSha1Hash            0      0.00%     78.93% # Class of executed instruction. (Count)
system.cpu.exec_context.thread_0.statExecutedInstType::SimdSha1Hash2            0      0.00%     78.93% # Class of executed instruction. (Count)
system.cpu.exec_context.thread_0.statExecutedInstType::SimdSha256Hash            0      0.00%     78.93% # Class of executed instruction. (Count)
system.cpu.exec_context.thread_0.statExecutedInstType::SimdSha256Hash2            0      0.00%     78.93% # Class of executed instruction. (Count)
system.cpu.exec_context.thread_0.statExecutedInstType::SimdShaSigma2            0      0.00%     78.93% # Class of executed instruction. (Count)
system.cpu.exec_context.thread_0.statExecutedInstType::SimdShaSigma3            0      0.00%     78.93% # Class of executed instruction. (Count)
system.cpu.exec_context.thread_0.statExecutedInstType::SimdPredAlu            0      0.00%     78.93% # Class of executed instruction. (Count)
system.cpu.exec_context.thread_0.statExecutedInstType::MemRead        52223      0.03%     78.96% # Class of executed instruction. (Count)
system.cpu.exec_context.thread_0.statExecutedInstType::MemWrite      1018994      0.50%     79.45% # Class of executed instruction. (Count)
system.cpu.exec_context.thread_0.statExecutedInstType::FloatMemRead     27001921     13.21%     92.66% # Class of executed instruction. (Count)
system.cpu.exec_context.thread_0.statExecutedInstType::FloatMemWrite     15001608      7.34%    100.00% # Class of executed instruction. (Count)
system.cpu.exec_context.thread_0.statExecutedInstType::IprAccess            0      0.00%    100.00% # Class of executed instruction. (Count)
system.cpu.exec_context.thread_0.statExecutedInstType::InstPrefetch            0      0.00%    100.00% # Class of executed instruction. (Count)
system.cpu.exec_context.thread_0.statExecutedInstType::total    204442129                       # Class of executed instruction. (Count)
system.cpu.interrupts.clk_domain.clock           4000                       # Clock period in ticks (Tick)
system.cpu.mmu.dtb.rdAccesses                27054189                       # TLB accesses on read requests (Count)
system.cpu.mmu.dtb.wrAccesses                16020624                       # TLB accesses on write requests (Count)
system.cpu.mmu.dtb.rdMisses                     43220                       # TLB misses on read requests (Count)
system.cpu.mmu.dtb.wrMisses                     29353                       # TLB misses on write requests (Count)
system.cpu.mmu.dtb.walker.power_state.pwrStateResidencyTicks::UNDEFINED 11876465455000                       # Cumulative time (in ticks) in various power states (Tick)
system.cpu.mmu.itb.rdAccesses                       0                       # TLB accesses on read requests (Count)
system.cpu.mmu.itb.wrAccesses               149310012                       # TLB accesses on write requests (Count)
system.cpu.mmu.itb.rdMisses                         0                       # TLB misses on read requests (Count)
system.cpu.mmu.itb.wrMisses                       175                       # TLB misses on write requests (Count)
system.cpu.mmu.itb.walker.power_state.pwrStateResidencyTicks::UNDEFINED 11876465455000                       # Cumulative time (in ticks) in various power states (Tick)
system.cpu.power_state.pwrStateResidencyTicks::ON 11876465455000                       # Cumulative time (in ticks) in various power states (Tick)
system.cpu.thread_0.numInsts                        0                       # Number of Instructions committed (Count)
system.cpu.thread_0.numOps                          0                       # Number of Ops committed (Count)
system.cpu.thread_0.numMemRefs                      0                       # Number of Memory References (Count)
system.cpu.workload.numSyscalls                   129                       # Number of system calls (Count)
system.cpu_clk_domain.clock                       250                       # Clock period in ticks (Tick)
system.cpu_voltage_domain.voltage                   1                       # Voltage in Volts (Volt)
system.mem_ctrls0.avgPriority_cpu.inst::samples  57175398.00                       # Average QoS priority value for accepted requests (Count)
system.mem_ctrls0.avgPriority_cpu.data::samples  14052781.00                       # Average QoS priority value for accepted requests (Count)
system.mem_ctrls0.priorityMinLatency     0.000000020000                       # per QoS priority minimum request to response latency (Second)
system.mem_ctrls0.priorityMaxLatency     4.056520091000                       # per QoS priority maximum request to response latency (Second)
system.mem_ctrls0.numReadWriteTurnArounds       112535                       # Number of turnarounds from READ to WRITE (Count)
system.mem_ctrls0.numWriteReadTurnArounds       112535                       # Number of turnarounds from WRITE to READ (Count)
system.mem_ctrls0.numStayReadState          149471679                       # Number of times bus staying in READ state (Count)
system.mem_ctrls0.numStayWriteState           1913380                       # Number of times bus staying in WRITE state (Count)
system.mem_ctrls0.readReqs                   69205290                       # Number of read requests accepted (Count)
system.mem_ctrls0.writeReqs                   8010743                       # Number of write requests accepted (Count)
system.mem_ctrls0.readBursts                 69205312                       # Number of controller read bursts, including those serviced by the write queue (Count)
system.mem_ctrls0.writeBursts                 8010743                       # Number of controller write bursts, including those merged in the write queue (Count)
system.mem_ctrls0.servicedByWrQ                  2802                       # Number of controller read bursts serviced by the write queue (Count)
system.mem_ctrls0.mergedWrBursts              5985074                       # Number of controller write bursts merged with an existing one (Count)
system.mem_ctrls0.neitherReadNorWriteReqs            0                       # Number of requests that are neither read nor write (Count)
system.mem_ctrls0.avgRdQLen                      1.00                       # Average read queue length when enqueuing ((Count/Tick))
system.mem_ctrls0.avgWrQLen                     24.61                       # Average write queue length when enqueuing ((Count/Tick))
system.mem_ctrls0.numRdRetry                        0                       # Number of times read queue was full causing retry (Count)
system.mem_ctrls0.numWrRetry                        0                       # Number of times write queue was full causing retry (Count)
system.mem_ctrls0.readPktSize::0                 5821                       # Read request sizes (log2) (Count)
system.mem_ctrls0.readPktSize::1                 1629                       # Read request sizes (log2) (Count)
system.mem_ctrls0.readPktSize::2                 4590                       # Read request sizes (log2) (Count)
system.mem_ctrls0.readPktSize::3             69193272                       # Read request sizes (log2) (Count)
system.mem_ctrls0.readPktSize::4                    0                       # Read request sizes (log2) (Count)
system.mem_ctrls0.readPktSize::5                    0                       # Read request sizes (log2) (Count)
system.mem_ctrls0.readPktSize::6                    0                       # Read request sizes (log2) (Count)
system.mem_ctrls0.writePktSize::0                 366                       # Write request sizes (log2) (Count)
system.mem_ctrls0.writePktSize::1                  81                       # Write request sizes (log2) (Count)
system.mem_ctrls0.writePktSize::2                1288                       # Write request sizes (log2) (Count)
system.mem_ctrls0.writePktSize::3             8009008                       # Write request sizes (log2) (Count)
system.mem_ctrls0.writePktSize::4                   0                       # Write request sizes (log2) (Count)
system.mem_ctrls0.writePktSize::5                   0                       # Write request sizes (log2) (Count)
system.mem_ctrls0.writePktSize::6                   0                       # Write request sizes (log2) (Count)
system.mem_ctrls0.rdQLenPdf::0               69202488                       # What read queue length does an incoming req see (Count)
system.mem_ctrls0.rdQLenPdf::1                     22                       # What read queue length does an incoming req see (Count)
system.mem_ctrls0.rdQLenPdf::2                      0                       # What read queue length does an incoming req see (Count)
system.mem_ctrls0.rdQLenPdf::3                      0                       # What read queue length does an incoming req see (Count)
system.mem_ctrls0.rdQLenPdf::4                      0                       # What read queue length does an incoming req see (Count)
system.mem_ctrls0.rdQLenPdf::5                      0                       # What read queue length does an incoming req see (Count)
system.mem_ctrls0.rdQLenPdf::6                      0                       # What read queue length does an incoming req see (Count)
system.mem_ctrls0.rdQLenPdf::7                      0                       # What read queue length does an incoming req see (Count)
system.mem_ctrls0.rdQLenPdf::8                      0                       # What read queue length does an incoming req see (Count)
system.mem_ctrls0.rdQLenPdf::9                      0                       # What read queue length does an incoming req see (Count)
system.mem_ctrls0.rdQLenPdf::10                     0                       # What read queue length does an incoming req see (Count)
system.mem_ctrls0.rdQLenPdf::11                     0                       # What read queue length does an incoming req see (Count)
system.mem_ctrls0.rdQLenPdf::12                     0                       # What read queue length does an incoming req see (Count)
system.mem_ctrls0.rdQLenPdf::13                     0                       # What read queue length does an incoming req see (Count)
system.mem_ctrls0.rdQLenPdf::14                     0                       # What read queue length does an incoming req see (Count)
system.mem_ctrls0.rdQLenPdf::15                     0                       # What read queue length does an incoming req see (Count)
system.mem_ctrls0.rdQLenPdf::16                     0                       # What read queue length does an incoming req see (Count)
system.mem_ctrls0.rdQLenPdf::17                     0                       # What read queue length does an incoming req see (Count)
system.mem_ctrls0.rdQLenPdf::18                     0                       # What read queue length does an incoming req see (Count)
system.mem_ctrls0.rdQLenPdf::19                     0                       # What read queue length does an incoming req see (Count)
system.mem_ctrls0.rdQLenPdf::20                     0                       # What read queue length does an incoming req see (Count)
system.mem_ctrls0.rdQLenPdf::21                     0                       # What read queue length does an incoming req see (Count)
system.mem_ctrls0.rdQLenPdf::22                     0                       # What read queue length does an incoming req see (Count)
system.mem_ctrls0.rdQLenPdf::23                     0                       # What read queue length does an incoming req see (Count)
system.mem_ctrls0.rdQLenPdf::24                     0                       # What read queue length does an incoming req see (Count)
system.mem_ctrls0.rdQLenPdf::25                     0                       # What read queue length does an incoming req see (Count)
system.mem_ctrls0.rdQLenPdf::26                     0                       # What read queue length does an incoming req see (Count)
system.mem_ctrls0.rdQLenPdf::27                     0                       # What read queue length does an incoming req see (Count)
system.mem_ctrls0.rdQLenPdf::28                     0                       # What read queue length does an incoming req see (Count)
system.mem_ctrls0.rdQLenPdf::29                     0                       # What read queue length does an incoming req see (Count)
system.mem_ctrls0.rdQLenPdf::30                     0                       # What read queue length does an incoming req see (Count)
system.mem_ctrls0.rdQLenPdf::31                     0                       # What read queue length does an incoming req see (Count)
system.mem_ctrls0.rdQLenPdf::32                     0                       # What read queue length does an incoming req see (Count)
system.mem_ctrls0.rdQLenPdf::33                     0                       # What read queue length does an incoming req see (Count)
system.mem_ctrls0.rdQLenPdf::34                     0                       # What read queue length does an incoming req see (Count)
system.mem_ctrls0.rdQLenPdf::35                     0                       # What read queue length does an incoming req see (Count)
system.mem_ctrls0.rdQLenPdf::36                     0                       # What read queue length does an incoming req see (Count)
system.mem_ctrls0.rdQLenPdf::37                     0                       # What read queue length does an incoming req see (Count)
system.mem_ctrls0.rdQLenPdf::38                     0                       # What read queue length does an incoming req see (Count)
system.mem_ctrls0.rdQLenPdf::39                     0                       # What read queue length does an incoming req see (Count)
system.mem_ctrls0.rdQLenPdf::40                     0                       # What read queue length does an incoming req see (Count)
system.mem_ctrls0.rdQLenPdf::41                     0                       # What read queue length does an incoming req see (Count)
system.mem_ctrls0.rdQLenPdf::42                     0                       # What read queue length does an incoming req see (Count)
system.mem_ctrls0.rdQLenPdf::43                     0                       # What read queue length does an incoming req see (Count)
system.mem_ctrls0.rdQLenPdf::44                     0                       # What read queue length does an incoming req see (Count)
system.mem_ctrls0.rdQLenPdf::45                     0                       # What read queue length does an incoming req see (Count)
system.mem_ctrls0.rdQLenPdf::46                     0                       # What read queue length does an incoming req see (Count)
system.mem_ctrls0.rdQLenPdf::47                     0                       # What read queue length does an incoming req see (Count)
system.mem_ctrls0.rdQLenPdf::48                     0                       # What read queue length does an incoming req see (Count)
system.mem_ctrls0.rdQLenPdf::49                     0                       # What read queue length does an incoming req see (Count)
system.mem_ctrls0.rdQLenPdf::50                     0                       # What read queue length does an incoming req see (Count)
system.mem_ctrls0.rdQLenPdf::51                     0                       # What read queue length does an incoming req see (Count)
system.mem_ctrls0.rdQLenPdf::52                     0                       # What read queue length does an incoming req see (Count)
system.mem_ctrls0.rdQLenPdf::53                     0                       # What read queue length does an incoming req see (Count)
system.mem_ctrls0.rdQLenPdf::54                     0                       # What read queue length does an incoming req see (Count)
system.mem_ctrls0.rdQLenPdf::55                     0                       # What read queue length does an incoming req see (Count)
system.mem_ctrls0.rdQLenPdf::56                     0                       # What read queue length does an incoming req see (Count)
system.mem_ctrls0.rdQLenPdf::57                     0                       # What read queue length does an incoming req see (Count)
system.mem_ctrls0.rdQLenPdf::58                     0                       # What read queue length does an incoming req see (Count)
system.mem_ctrls0.rdQLenPdf::59                     0                       # What read queue length does an incoming req see (Count)
system.mem_ctrls0.rdQLenPdf::60                     0                       # What read queue length does an incoming req see (Count)
system.mem_ctrls0.rdQLenPdf::61                     0                       # What read queue length does an incoming req see (Count)
system.mem_ctrls0.rdQLenPdf::62                     0                       # What read queue length does an incoming req see (Count)
system.mem_ctrls0.rdQLenPdf::63                     0                       # What read queue length does an incoming req see (Count)
system.mem_ctrls0.wrQLenPdf::0                      1                       # What write queue length does an incoming req see (Count)
system.mem_ctrls0.wrQLenPdf::1                      1                       # What write queue length does an incoming req see (Count)
system.mem_ctrls0.wrQLenPdf::2                      1                       # What write queue length does an incoming req see (Count)
system.mem_ctrls0.wrQLenPdf::3                      1                       # What write queue length does an incoming req see (Count)
system.mem_ctrls0.wrQLenPdf::4                      1                       # What write queue length does an incoming req see (Count)
system.mem_ctrls0.wrQLenPdf::5                      1                       # What write queue length does an incoming req see (Count)
system.mem_ctrls0.wrQLenPdf::6                      1                       # What write queue length does an incoming req see (Count)
system.mem_ctrls0.wrQLenPdf::7                      1                       # What write queue length does an incoming req see (Count)
system.mem_ctrls0.wrQLenPdf::8                      1                       # What write queue length does an incoming req see (Count)
system.mem_ctrls0.wrQLenPdf::9                      1                       # What write queue length does an incoming req see (Count)
system.mem_ctrls0.wrQLenPdf::10                     1                       # What write queue length does an incoming req see (Count)
system.mem_ctrls0.wrQLenPdf::11                     1                       # What write queue length does an incoming req see (Count)
system.mem_ctrls0.wrQLenPdf::12                     1                       # What write queue length does an incoming req see (Count)
system.mem_ctrls0.wrQLenPdf::13                     1                       # What write queue length does an incoming req see (Count)
system.mem_ctrls0.wrQLenPdf::14                     1                       # What write queue length does an incoming req see (Count)
system.mem_ctrls0.wrQLenPdf::15                112534                       # What write queue length does an incoming req see (Count)
system.mem_ctrls0.wrQLenPdf::16                112534                       # What write queue length does an incoming req see (Count)
system.mem_ctrls0.wrQLenPdf::17                112536                       # What write queue length does an incoming req see (Count)
system.mem_ctrls0.wrQLenPdf::18                112536                       # What write queue length does an incoming req see (Count)
system.mem_ctrls0.wrQLenPdf::19                112536                       # What write queue length does an incoming req see (Count)
system.mem_ctrls0.wrQLenPdf::20                112536                       # What write queue length does an incoming req see (Count)
system.mem_ctrls0.wrQLenPdf::21                112553                       # What write queue length does an incoming req see (Count)
system.mem_ctrls0.wrQLenPdf::22                112536                       # What write queue length does an incoming req see (Count)
system.mem_ctrls0.wrQLenPdf::23                112536                       # What write queue length does an incoming req see (Count)
system.mem_ctrls0.wrQLenPdf::24                112536                       # What write queue length does an incoming req see (Count)
system.mem_ctrls0.wrQLenPdf::25                112536                       # What write queue length does an incoming req see (Count)
system.mem_ctrls0.wrQLenPdf::26                112535                       # What write queue length does an incoming req see (Count)
system.mem_ctrls0.wrQLenPdf::27                112535                       # What write queue length does an incoming req see (Count)
system.mem_ctrls0.wrQLenPdf::28                112535                       # What write queue length does an incoming req see (Count)
system.mem_ctrls0.wrQLenPdf::29                112535                       # What write queue length does an incoming req see (Count)
system.mem_ctrls0.wrQLenPdf::30                112535                       # What write queue length does an incoming req see (Count)
system.mem_ctrls0.wrQLenPdf::31                112535                       # What write queue length does an incoming req see (Count)
system.mem_ctrls0.wrQLenPdf::32                112535                       # What write queue length does an incoming req see (Count)
system.mem_ctrls0.wrQLenPdf::33                     0                       # What write queue length does an incoming req see (Count)
system.mem_ctrls0.wrQLenPdf::34                     0                       # What write queue length does an incoming req see (Count)
system.mem_ctrls0.wrQLenPdf::35                     0                       # What write queue length does an incoming req see (Count)
system.mem_ctrls0.wrQLenPdf::36                     0                       # What write queue length does an incoming req see (Count)
system.mem_ctrls0.wrQLenPdf::37                     0                       # What write queue length does an incoming req see (Count)
system.mem_ctrls0.wrQLenPdf::38                     0                       # What write queue length does an incoming req see (Count)
system.mem_ctrls0.wrQLenPdf::39                     0                       # What write queue length does an incoming req see (Count)
system.mem_ctrls0.wrQLenPdf::40                     0                       # What write queue length does an incoming req see (Count)
system.mem_ctrls0.wrQLenPdf::41                     0                       # What write queue length does an incoming req see (Count)
system.mem_ctrls0.wrQLenPdf::42                     0                       # What write queue length does an incoming req see (Count)
system.mem_ctrls0.wrQLenPdf::43                     0                       # What write queue length does an incoming req see (Count)
system.mem_ctrls0.wrQLenPdf::44                     0                       # What write queue length does an incoming req see (Count)
system.mem_ctrls0.wrQLenPdf::45                     0                       # What write queue length does an incoming req see (Count)
system.mem_ctrls0.wrQLenPdf::46                     0                       # What write queue length does an incoming req see (Count)
system.mem_ctrls0.wrQLenPdf::47                     0                       # What write queue length does an incoming req see (Count)
system.mem_ctrls0.wrQLenPdf::48                     0                       # What write queue length does an incoming req see (Count)
system.mem_ctrls0.wrQLenPdf::49                     0                       # What write queue length does an incoming req see (Count)
system.mem_ctrls0.wrQLenPdf::50                     0                       # What write queue length does an incoming req see (Count)
system.mem_ctrls0.wrQLenPdf::51                     0                       # What write queue length does an incoming req see (Count)
system.mem_ctrls0.wrQLenPdf::52                     0                       # What write queue length does an incoming req see (Count)
system.mem_ctrls0.wrQLenPdf::53                     0                       # What write queue length does an incoming req see (Count)
system.mem_ctrls0.wrQLenPdf::54                     0                       # What write queue length does an incoming req see (Count)
system.mem_ctrls0.wrQLenPdf::55                     0                       # What write queue length does an incoming req see (Count)
system.mem_ctrls0.wrQLenPdf::56                     0                       # What write queue length does an incoming req see (Count)
system.mem_ctrls0.wrQLenPdf::57                     0                       # What write queue length does an incoming req see (Count)
system.mem_ctrls0.wrQLenPdf::58                     0                       # What write queue length does an incoming req see (Count)
system.mem_ctrls0.wrQLenPdf::59                     0                       # What write queue length does an incoming req see (Count)
system.mem_ctrls0.wrQLenPdf::60                     0                       # What write queue length does an incoming req see (Count)
system.mem_ctrls0.wrQLenPdf::61                     0                       # What write queue length does an incoming req see (Count)
system.mem_ctrls0.wrQLenPdf::62                     0                       # What write queue length does an incoming req see (Count)
system.mem_ctrls0.wrQLenPdf::63                     0                       # What write queue length does an incoming req see (Count)
system.mem_ctrls0.rdPerTurnAround::samples       112535                       # Reads before turning the bus around for writes (Count)
system.mem_ctrls0.rdPerTurnAround::mean    614.935282                       # Reads before turning the bus around for writes (Count)
system.mem_ctrls0.rdPerTurnAround::stdev 34356.758889                       # Reads before turning the bus around for writes (Count)
system.mem_ctrls0.rdPerTurnAround::0-262143       112534    100.00%    100.00% # Reads before turning the bus around for writes (Count)
system.mem_ctrls0.rdPerTurnAround::1.12722e+07-1.15343e+07            1      0.00%    100.00% # Reads before turning the bus around for writes (Count)
system.mem_ctrls0.rdPerTurnAround::total       112535                       # Reads before turning the bus around for writes (Count)
system.mem_ctrls0.wrPerTurnAround::samples       112535                       # Writes before turning the bus around for reads (Count)
system.mem_ctrls0.wrPerTurnAround::mean     18.000116                       # Writes before turning the bus around for reads (Count)
system.mem_ctrls0.wrPerTurnAround::gmean    18.000109                       # Writes before turning the bus around for reads (Count)
system.mem_ctrls0.wrPerTurnAround::stdev     0.014904                       # Writes before turning the bus around for reads (Count)
system.mem_ctrls0.wrPerTurnAround::16               2      0.00%      0.00% # Writes before turning the bus around for reads (Count)
system.mem_ctrls0.wrPerTurnAround::18          112516     99.98%     99.98% # Writes before turning the bus around for reads (Count)
system.mem_ctrls0.wrPerTurnAround::19              17      0.02%    100.00% # Writes before turning the bus around for reads (Count)
system.mem_ctrls0.wrPerTurnAround::total       112535                       # Writes before turning the bus around for reads (Count)
system.mem_ctrls0.bytesReadWrQ                  89664                       # Total number of bytes read from write queue (Byte)
system.mem_ctrls0.bytesReadSys              553573524                       # Total read bytes from the system interface side (Byte)
system.mem_ctrls0.bytesWrittenSys            64077727                       # Total written bytes from the system interface side (Byte)
system.mem_ctrls0.avgRdBWSys             46610965.70334781                       # Average system read bandwidth in Byte/s ((Byte/Second))
system.mem_ctrls0.avgWrBWSys             5395353.29284549                       # Average system write bandwidth in Byte/s ((Byte/Second))
system.mem_ctrls0.totGap                 11876465131000                       # Total gap between requests (Tick)
system.mem_ctrls0.avgGap                    153808.28                       # Average gap between requests ((Tick/Count))
system.mem_ctrls0.requestorReadBytes::cpu.inst    457403184                       # Per-requestor bytes read from memory (Byte)
system.mem_ctrls0.requestorReadBytes::cpu.data     96150954                       # Per-requestor bytes read from memory (Byte)
system.mem_ctrls0.requestorWriteBytes::cpu.data     16204746                       # Per-requestor bytes write to memory (Byte)
system.mem_ctrls0.requestorReadRate::cpu.inst 38513410.048899099231                       # Per-requestor bytes read from memory rate ((Byte/Second))
system.mem_ctrls0.requestorReadRate::cpu.data 8095923.350622839294                       # Per-requestor bytes read from memory rate ((Byte/Second))
system.mem_ctrls0.requestorWriteRate::cpu.data 1364441.808162527857                       # Per-requestor bytes write to memory rate ((Byte/Second))
system.mem_ctrls0.requestorReadAccesses::cpu.inst     57175398                       # Per-requestor read serviced memory accesses (Count)
system.mem_ctrls0.requestorReadAccesses::cpu.data     12029914                       # Per-requestor read serviced memory accesses (Count)
system.mem_ctrls0.requestorWriteAccesses::cpu.data      8010743                       # Per-requestor write serviced memory accesses (Count)
system.mem_ctrls0.requestorReadTotalLat::cpu.inst 2024952549000                       # Per-requestor read total memory access latency (Tick)
system.mem_ctrls0.requestorReadTotalLat::cpu.data 434978107000                       # Per-requestor read total memory access latency (Tick)
system.mem_ctrls0.requestorWriteTotalLat::cpu.data 266118924516000                       # Per-requestor write total memory access latency (Tick)
system.mem_ctrls0.requestorReadAvgLat::cpu.inst     35416.50                       # Per-requestor read average memory access latency ((Tick/Count))
system.mem_ctrls0.requestorReadAvgLat::cpu.data     36158.04                       # Per-requestor read average memory access latency ((Tick/Count))
system.mem_ctrls0.requestorWriteAvgLat::cpu.data  33220254.91                       # Per-requestor write average memory access latency ((Tick/Count))
system.mem_ctrls0.dram.bytesRead::cpu.inst    457403184                       # Number of bytes read from this memory (Byte)
system.mem_ctrls0.dram.bytesRead::cpu.data     96170340                       # Number of bytes read from this memory (Byte)
system.mem_ctrls0.dram.bytesRead::total     553573524                       # Number of bytes read from this memory (Byte)
system.mem_ctrls0.dram.bytesInstRead::cpu.inst    457403184                       # Number of instructions bytes read from this memory (Byte)
system.mem_ctrls0.dram.bytesInstRead::total    457403184                       # Number of instructions bytes read from this memory (Byte)
system.mem_ctrls0.dram.bytesWritten::cpu.data     64077727                       # Number of bytes written to this memory (Byte)
system.mem_ctrls0.dram.bytesWritten::total     64077727                       # Number of bytes written to this memory (Byte)
system.mem_ctrls0.dram.numReads::cpu.inst     57175398                       # Number of read requests responded to by this memory (Count)
system.mem_ctrls0.dram.numReads::cpu.data     12029892                       # Number of read requests responded to by this memory (Count)
system.mem_ctrls0.dram.numReads::total       69205290                       # Number of read requests responded to by this memory (Count)
system.mem_ctrls0.dram.numWrites::cpu.data      8010743                       # Number of write requests responded to by this memory (Count)
system.mem_ctrls0.dram.numWrites::total       8010743                       # Number of write requests responded to by this memory (Count)
system.mem_ctrls0.dram.bwRead::cpu.inst      38513410                       # Total read bandwidth from this memory ((Byte/Second))
system.mem_ctrls0.dram.bwRead::cpu.data       8097556                       # Total read bandwidth from this memory ((Byte/Second))
system.mem_ctrls0.dram.bwRead::total         46610966                       # Total read bandwidth from this memory ((Byte/Second))
system.mem_ctrls0.dram.bwInstRead::cpu.inst     38513410                       # Instruction read bandwidth from this memory ((Byte/Second))
system.mem_ctrls0.dram.bwInstRead::total     38513410                       # Instruction read bandwidth from this memory ((Byte/Second))
system.mem_ctrls0.dram.bwWrite::cpu.data      5395353                       # Write bandwidth from this memory ((Byte/Second))
system.mem_ctrls0.dram.bwWrite::total         5395353                       # Write bandwidth from this memory ((Byte/Second))
system.mem_ctrls0.dram.bwTotal::cpu.inst     38513410                       # Total bandwidth to/from this memory ((Byte/Second))
system.mem_ctrls0.dram.bwTotal::cpu.data     13492909                       # Total bandwidth to/from this memory ((Byte/Second))
system.mem_ctrls0.dram.bwTotal::total        52006319                       # Total bandwidth to/from this memory ((Byte/Second))
system.mem_ctrls0.dram.readBursts            69202510                       # Number of DRAM read bursts (Count)
system.mem_ctrls0.dram.writeBursts            2025643                       # Number of DRAM write bursts (Count)
system.mem_ctrls0.dram.perBankRdBursts::0       692943                       # Per bank write bursts (Count)
system.mem_ctrls0.dram.perBankRdBursts::1       691829                       # Per bank write bursts (Count)
system.mem_ctrls0.dram.perBankRdBursts::2      9691548                       # Per bank write bursts (Count)
system.mem_ctrls0.dram.perBankRdBursts::3     48689220                       # Per bank write bursts (Count)
system.mem_ctrls0.dram.perBankRdBursts::4      1690809                       # Per bank write bursts (Count)
system.mem_ctrls0.dram.perBankRdBursts::5       692044                       # Per bank write bursts (Count)
system.mem_ctrls0.dram.perBankRdBursts::6       702538                       # Per bank write bursts (Count)
system.mem_ctrls0.dram.perBankRdBursts::7       694946                       # Per bank write bursts (Count)
system.mem_ctrls0.dram.perBankRdBursts::8       712643                       # Per bank write bursts (Count)
system.mem_ctrls0.dram.perBankRdBursts::9       690491                       # Per bank write bursts (Count)
system.mem_ctrls0.dram.perBankRdBursts::10       692171                       # Per bank write bursts (Count)
system.mem_ctrls0.dram.perBankRdBursts::11       697118                       # Per bank write bursts (Count)
system.mem_ctrls0.dram.perBankRdBursts::12       770059                       # Per bank write bursts (Count)
system.mem_ctrls0.dram.perBankRdBursts::13       693132                       # Per bank write bursts (Count)
system.mem_ctrls0.dram.perBankRdBursts::14       697659                       # Per bank write bursts (Count)
system.mem_ctrls0.dram.perBankRdBursts::15       703360                       # Per bank write bursts (Count)
system.mem_ctrls0.dram.perBankWrBursts::0       126515                       # Per bank write bursts (Count)
system.mem_ctrls0.dram.perBankWrBursts::1       126528                       # Per bank write bursts (Count)
system.mem_ctrls0.dram.perBankWrBursts::2       126546                       # Per bank write bursts (Count)
system.mem_ctrls0.dram.perBankWrBursts::3       126523                       # Per bank write bursts (Count)
system.mem_ctrls0.dram.perBankWrBursts::4       126554                       # Per bank write bursts (Count)
system.mem_ctrls0.dram.perBankWrBursts::5       126565                       # Per bank write bursts (Count)
system.mem_ctrls0.dram.perBankWrBursts::6       126475                       # Per bank write bursts (Count)
system.mem_ctrls0.dram.perBankWrBursts::7       126495                       # Per bank write bursts (Count)
system.mem_ctrls0.dram.perBankWrBursts::8       126694                       # Per bank write bursts (Count)
system.mem_ctrls0.dram.perBankWrBursts::9       126708                       # Per bank write bursts (Count)
system.mem_ctrls0.dram.perBankWrBursts::10       126620                       # Per bank write bursts (Count)
system.mem_ctrls0.dram.perBankWrBursts::11       126673                       # Per bank write bursts (Count)
system.mem_ctrls0.dram.perBankWrBursts::12       126650                       # Per bank write bursts (Count)
system.mem_ctrls0.dram.perBankWrBursts::13       126658                       # Per bank write bursts (Count)
system.mem_ctrls0.dram.perBankWrBursts::14       126727                       # Per bank write bursts (Count)
system.mem_ctrls0.dram.perBankWrBursts::15       126712                       # Per bank write bursts (Count)
system.mem_ctrls0.dram.totQLat           1075880456000                       # Total ticks spent queuing (Tick)
system.mem_ctrls0.dram.totBusLat         138405020000                       # Total ticks spent in databus transfers (Tick)
system.mem_ctrls0.dram.totMemAccLat      2459930656000                       # Total ticks spent from burst creation until serviced by the DRAM (Tick)
system.mem_ctrls0.dram.avgQLat               15546.84                       # Average queueing delay per DRAM burst ((Tick/Count))
system.mem_ctrls0.dram.avgBusLat              2000.00                       # Average bus latency per DRAM burst ((Tick/Count))
system.mem_ctrls0.dram.avgMemAccLat          35546.84                       # Average memory access latency per DRAM burst ((Tick/Count))
system.mem_ctrls0.dram.readRowHits               5497                       # Number of row buffer hits during reads (Count)
system.mem_ctrls0.dram.writeRowHits           1735070                       # Number of row buffer hits during writes (Count)
system.mem_ctrls0.dram.readRowHitRate            0.01                       # Row buffer hit rate for reads (Ratio)
system.mem_ctrls0.dram.writeRowHitRate          85.66                       # Row buffer hit rate for writes (Ratio)
system.mem_ctrls0.dram.bytesPerActivate::samples     69487586                       # Bytes accessed per row activation (Byte)
system.mem_ctrls0.dram.bytesPerActivate::mean    32.801555                       # Bytes accessed per row activation (Byte)
system.mem_ctrls0.dram.bytesPerActivate::gmean    32.242207                       # Bytes accessed per row activation (Byte)
system.mem_ctrls0.dram.bytesPerActivate::stdev    13.591174                       # Bytes accessed per row activation (Byte)
system.mem_ctrls0.dram.bytesPerActivate::32-63     69220002     99.61%     99.61% # Bytes accessed per row activation (Byte)
system.mem_ctrls0.dram.bytesPerActivate::64-95         5149      0.01%     99.62% # Bytes accessed per row activation (Byte)
system.mem_ctrls0.dram.bytesPerActivate::96-127        13795      0.02%     99.64% # Bytes accessed per row activation (Byte)
system.mem_ctrls0.dram.bytesPerActivate::128-159        14377      0.02%     99.66% # Bytes accessed per row activation (Byte)
system.mem_ctrls0.dram.bytesPerActivate::160-191        30570      0.04%     99.71% # Bytes accessed per row activation (Byte)
system.mem_ctrls0.dram.bytesPerActivate::192-223         4432      0.01%     99.71% # Bytes accessed per row activation (Byte)
system.mem_ctrls0.dram.bytesPerActivate::224-255        18328      0.03%     99.74% # Bytes accessed per row activation (Byte)
system.mem_ctrls0.dram.bytesPerActivate::256-287        90589      0.13%     99.87% # Bytes accessed per row activation (Byte)
system.mem_ctrls0.dram.bytesPerActivate::288-319        36962      0.05%     99.92% # Bytes accessed per row activation (Byte)
system.mem_ctrls0.dram.bytesPerActivate::320-351        53370      0.08%    100.00% # Bytes accessed per row activation (Byte)
system.mem_ctrls0.dram.bytesPerActivate::352-383            4      0.00%    100.00% # Bytes accessed per row activation (Byte)
system.mem_ctrls0.dram.bytesPerActivate::384-415            2      0.00%    100.00% # Bytes accessed per row activation (Byte)
system.mem_ctrls0.dram.bytesPerActivate::416-447            2      0.00%    100.00% # Bytes accessed per row activation (Byte)
system.mem_ctrls0.dram.bytesPerActivate::448-479            2      0.00%    100.00% # Bytes accessed per row activation (Byte)
system.mem_ctrls0.dram.bytesPerActivate::480-511            2      0.00%    100.00% # Bytes accessed per row activation (Byte)
system.mem_ctrls0.dram.bytesPerActivate::total     69487586                       # Bytes accessed per row activation (Byte)
system.mem_ctrls0.dram.bytesRead           2214480320                       # Total bytes read (Byte)
system.mem_ctrls0.dram.bytesWritten          64820576                       # Total bytes written (Byte)
system.mem_ctrls0.dram.avgRdBW             186.459543                       # Average DRAM read bandwidth in MiBytes/s ((Byte/Second))
system.mem_ctrls0.dram.avgWrBW               5.457901                       # Average DRAM write bandwidth in MiBytes/s ((Byte/Second))
system.mem_ctrls0.dram.peakBW                16000.00                       # Theoretical peak bandwidth in MiByte/s ((Byte/Second))
system.mem_ctrls0.dram.busUtil                   1.20                       # Data bus utilization in percentage (Ratio)
system.mem_ctrls0.dram.busUtilRead               1.17                       # Data bus utilization in percentage for reads (Ratio)
system.mem_ctrls0.dram.busUtilWrite              0.03                       # Data bus utilization in percentage for writes (Ratio)
system.mem_ctrls0.dram.pageHitRate               2.44                       # Row buffer hit rate, read and write combined (Ratio)
system.mem_ctrls0.dram.power_state.pwrStateResidencyTicks::UNDEFINED 11876465455000                       # Cumulative time (in ticks) in various power states (Tick)
system.mem_ctrls0.dram.rank0.actEnergy              0                       # Energy for activate commands per rank (pJ) (Joule)
system.mem_ctrls0.dram.rank0.preEnergy              0                       # Energy for precharge commands per rank (pJ) (Joule)
system.mem_ctrls0.dram.rank0.readEnergy             0                       # Energy for read commands per rank (pJ) (Joule)
system.mem_ctrls0.dram.rank0.writeEnergy            0                       # Energy for write commands per rank (pJ) (Joule)
system.mem_ctrls0.dram.rank0.refreshEnergy            0                       # Energy for refresh commands per rank (pJ) (Joule)
system.mem_ctrls0.dram.rank0.actBackEnergy            0                       # Energy for active background per rank (pJ) (Joule)
system.mem_ctrls0.dram.rank0.preBackEnergy            0                       # Energy for precharge background per rank (pJ) (Joule)
system.mem_ctrls0.dram.rank0.actPowerDownEnergy            0                       # Energy for active power-down per rank (pJ) (Joule)
system.mem_ctrls0.dram.rank0.prePowerDownEnergy            0                       # Energy for precharge power-down per rank (pJ) (Joule)
system.mem_ctrls0.dram.rank0.selfRefreshEnergy            0                       # Energy for self refresh per rank (pJ) (Joule)
system.mem_ctrls0.dram.rank0.totalEnergy            0                       # Total energy per rank (pJ) (Joule)
system.mem_ctrls0.dram.rank0.averagePower            0                       # Core power per rank (mW) (Watt)
system.mem_ctrls0.dram.rank0.totalIdleTime            0                       # Total Idle time Per DRAM Rank (Tick)
system.mem_ctrls0.dram.rank0.pwrStateTime::IDLE 8137853753000                       # Time in different power states (Tick)
system.mem_ctrls0.dram.rank0.pwrStateTime::REF 672367960000                       # Time in different power states (Tick)
system.mem_ctrls0.dram.rank0.pwrStateTime::SREF            0                       # Time in different power states (Tick)
system.mem_ctrls0.dram.rank0.pwrStateTime::PRE_PDN            0                       # Time in different power states (Tick)
system.mem_ctrls0.dram.rank0.pwrStateTime::ACT 3066243742000                       # Time in different power states (Tick)
system.mem_ctrls0.dram.rank0.pwrStateTime::ACT_PDN            0                       # Time in different power states (Tick)
system.mem_ctrls0.power_state.pwrStateResidencyTicks::UNDEFINED 11876465455000                       # Cumulative time (in ticks) in various power states (Tick)
system.mem_ctrls1.avgPriority_cpu.inst::samples  92134564.00                       # Average QoS priority value for accepted requests (Count)
system.mem_ctrls1.avgPriority_cpu.data::samples  17046012.00                       # Average QoS priority value for accepted requests (Count)
system.mem_ctrls1.priorityMinLatency     0.000000020000                       # per QoS priority minimum request to response latency (Second)
system.mem_ctrls1.priorityMaxLatency     4.056752073000                       # per QoS priority maximum request to response latency (Second)
system.mem_ctrls1.numReadWriteTurnArounds       112517                       # Number of turnarounds from READ to WRITE (Count)
system.mem_ctrls1.numWriteReadTurnArounds       112517                       # Number of turnarounds from WRITE to READ (Count)
system.mem_ctrls1.numStayReadState          225376143                       # Number of times bus staying in READ state (Count)
system.mem_ctrls1.numStayWriteState           1913514                       # Number of times bus staying in WRITE state (Count)
system.mem_ctrls1.readReqs                  107158811                       # Number of read requests accepted (Count)
system.mem_ctrls1.writeReqs                   8009870                       # Number of write requests accepted (Count)
system.mem_ctrls1.readBursts                107158840                       # Number of controller read bursts, including those serviced by the write queue (Count)
system.mem_ctrls1.writeBursts                 8009872                       # Number of controller write bursts, including those merged in the write queue (Count)
system.mem_ctrls1.servicedByWrQ                  3236                       # Number of controller read bursts serviced by the write queue (Count)
system.mem_ctrls1.mergedWrBursts              5984900                       # Number of controller write bursts merged with an existing one (Count)
system.mem_ctrls1.neitherReadNorWriteReqs            0                       # Number of requests that are neither read nor write (Count)
system.mem_ctrls1.avgRdQLen                      1.00                       # Average read queue length when enqueuing ((Count/Tick))
system.mem_ctrls1.avgWrQLen                     25.20                       # Average write queue length when enqueuing ((Count/Tick))
system.mem_ctrls1.numRdRetry                        0                       # Number of times read queue was full causing retry (Count)
system.mem_ctrls1.numWrRetry                        0                       # Number of times write queue was full causing retry (Count)
system.mem_ctrls1.readPktSize::0                 4362                       # Read request sizes (log2) (Count)
system.mem_ctrls1.readPktSize::1                 1580                       # Read request sizes (log2) (Count)
system.mem_ctrls1.readPktSize::2                 4256                       # Read request sizes (log2) (Count)
system.mem_ctrls1.readPktSize::3            107148642                       # Read request sizes (log2) (Count)
system.mem_ctrls1.readPktSize::4                    0                       # Read request sizes (log2) (Count)
system.mem_ctrls1.readPktSize::5                    0                       # Read request sizes (log2) (Count)
system.mem_ctrls1.readPktSize::6                    0                       # Read request sizes (log2) (Count)
system.mem_ctrls1.writePktSize::0                 236                       # Write request sizes (log2) (Count)
system.mem_ctrls1.writePktSize::1                  72                       # Write request sizes (log2) (Count)
system.mem_ctrls1.writePktSize::2                1415                       # Write request sizes (log2) (Count)
system.mem_ctrls1.writePktSize::3             8008149                       # Write request sizes (log2) (Count)
system.mem_ctrls1.writePktSize::4                   0                       # Write request sizes (log2) (Count)
system.mem_ctrls1.writePktSize::5                   0                       # Write request sizes (log2) (Count)
system.mem_ctrls1.writePktSize::6                   0                       # Write request sizes (log2) (Count)
system.mem_ctrls1.rdQLenPdf::0              107155575                       # What read queue length does an incoming req see (Count)
system.mem_ctrls1.rdQLenPdf::1                     29                       # What read queue length does an incoming req see (Count)
system.mem_ctrls1.rdQLenPdf::2                      0                       # What read queue length does an incoming req see (Count)
system.mem_ctrls1.rdQLenPdf::3                      0                       # What read queue length does an incoming req see (Count)
system.mem_ctrls1.rdQLenPdf::4                      0                       # What read queue length does an incoming req see (Count)
system.mem_ctrls1.rdQLenPdf::5                      0                       # What read queue length does an incoming req see (Count)
system.mem_ctrls1.rdQLenPdf::6                      0                       # What read queue length does an incoming req see (Count)
system.mem_ctrls1.rdQLenPdf::7                      0                       # What read queue length does an incoming req see (Count)
system.mem_ctrls1.rdQLenPdf::8                      0                       # What read queue length does an incoming req see (Count)
system.mem_ctrls1.rdQLenPdf::9                      0                       # What read queue length does an incoming req see (Count)
system.mem_ctrls1.rdQLenPdf::10                     0                       # What read queue length does an incoming req see (Count)
system.mem_ctrls1.rdQLenPdf::11                     0                       # What read queue length does an incoming req see (Count)
system.mem_ctrls1.rdQLenPdf::12                     0                       # What read queue length does an incoming req see (Count)
system.mem_ctrls1.rdQLenPdf::13                     0                       # What read queue length does an incoming req see (Count)
system.mem_ctrls1.rdQLenPdf::14                     0                       # What read queue length does an incoming req see (Count)
system.mem_ctrls1.rdQLenPdf::15                     0                       # What read queue length does an incoming req see (Count)
system.mem_ctrls1.rdQLenPdf::16                     0                       # What read queue length does an incoming req see (Count)
system.mem_ctrls1.rdQLenPdf::17                     0                       # What read queue length does an incoming req see (Count)
system.mem_ctrls1.rdQLenPdf::18                     0                       # What read queue length does an incoming req see (Count)
system.mem_ctrls1.rdQLenPdf::19                     0                       # What read queue length does an incoming req see (Count)
system.mem_ctrls1.rdQLenPdf::20                     0                       # What read queue length does an incoming req see (Count)
system.mem_ctrls1.rdQLenPdf::21                     0                       # What read queue length does an incoming req see (Count)
system.mem_ctrls1.rdQLenPdf::22                     0                       # What read queue length does an incoming req see (Count)
system.mem_ctrls1.rdQLenPdf::23                     0                       # What read queue length does an incoming req see (Count)
system.mem_ctrls1.rdQLenPdf::24                     0                       # What read queue length does an incoming req see (Count)
system.mem_ctrls1.rdQLenPdf::25                     0                       # What read queue length does an incoming req see (Count)
system.mem_ctrls1.rdQLenPdf::26                     0                       # What read queue length does an incoming req see (Count)
system.mem_ctrls1.rdQLenPdf::27                     0                       # What read queue length does an incoming req see (Count)
system.mem_ctrls1.rdQLenPdf::28                     0                       # What read queue length does an incoming req see (Count)
system.mem_ctrls1.rdQLenPdf::29                     0                       # What read queue length does an incoming req see (Count)
system.mem_ctrls1.rdQLenPdf::30                     0                       # What read queue length does an incoming req see (Count)
system.mem_ctrls1.rdQLenPdf::31                     0                       # What read queue length does an incoming req see (Count)
system.mem_ctrls1.rdQLenPdf::32                     0                       # What read queue length does an incoming req see (Count)
system.mem_ctrls1.rdQLenPdf::33                     0                       # What read queue length does an incoming req see (Count)
system.mem_ctrls1.rdQLenPdf::34                     0                       # What read queue length does an incoming req see (Count)
system.mem_ctrls1.rdQLenPdf::35                     0                       # What read queue length does an incoming req see (Count)
system.mem_ctrls1.rdQLenPdf::36                     0                       # What read queue length does an incoming req see (Count)
system.mem_ctrls1.rdQLenPdf::37                     0                       # What read queue length does an incoming req see (Count)
system.mem_ctrls1.rdQLenPdf::38                     0                       # What read queue length does an incoming req see (Count)
system.mem_ctrls1.rdQLenPdf::39                     0                       # What read queue length does an incoming req see (Count)
system.mem_ctrls1.rdQLenPdf::40                     0                       # What read queue length does an incoming req see (Count)
system.mem_ctrls1.rdQLenPdf::41                     0                       # What read queue length does an incoming req see (Count)
system.mem_ctrls1.rdQLenPdf::42                     0                       # What read queue length does an incoming req see (Count)
system.mem_ctrls1.rdQLenPdf::43                     0                       # What read queue length does an incoming req see (Count)
system.mem_ctrls1.rdQLenPdf::44                     0                       # What read queue length does an incoming req see (Count)
system.mem_ctrls1.rdQLenPdf::45                     0                       # What read queue length does an incoming req see (Count)
system.mem_ctrls1.rdQLenPdf::46                     0                       # What read queue length does an incoming req see (Count)
system.mem_ctrls1.rdQLenPdf::47                     0                       # What read queue length does an incoming req see (Count)
system.mem_ctrls1.rdQLenPdf::48                     0                       # What read queue length does an incoming req see (Count)
system.mem_ctrls1.rdQLenPdf::49                     0                       # What read queue length does an incoming req see (Count)
system.mem_ctrls1.rdQLenPdf::50                     0                       # What read queue length does an incoming req see (Count)
system.mem_ctrls1.rdQLenPdf::51                     0                       # What read queue length does an incoming req see (Count)
system.mem_ctrls1.rdQLenPdf::52                     0                       # What read queue length does an incoming req see (Count)
system.mem_ctrls1.rdQLenPdf::53                     0                       # What read queue length does an incoming req see (Count)
system.mem_ctrls1.rdQLenPdf::54                     0                       # What read queue length does an incoming req see (Count)
system.mem_ctrls1.rdQLenPdf::55                     0                       # What read queue length does an incoming req see (Count)
system.mem_ctrls1.rdQLenPdf::56                     0                       # What read queue length does an incoming req see (Count)
system.mem_ctrls1.rdQLenPdf::57                     0                       # What read queue length does an incoming req see (Count)
system.mem_ctrls1.rdQLenPdf::58                     0                       # What read queue length does an incoming req see (Count)
system.mem_ctrls1.rdQLenPdf::59                     0                       # What read queue length does an incoming req see (Count)
system.mem_ctrls1.rdQLenPdf::60                     0                       # What read queue length does an incoming req see (Count)
system.mem_ctrls1.rdQLenPdf::61                     0                       # What read queue length does an incoming req see (Count)
system.mem_ctrls1.rdQLenPdf::62                     0                       # What read queue length does an incoming req see (Count)
system.mem_ctrls1.rdQLenPdf::63                     0                       # What read queue length does an incoming req see (Count)
system.mem_ctrls1.wrQLenPdf::0                      1                       # What write queue length does an incoming req see (Count)
system.mem_ctrls1.wrQLenPdf::1                      1                       # What write queue length does an incoming req see (Count)
system.mem_ctrls1.wrQLenPdf::2                      1                       # What write queue length does an incoming req see (Count)
system.mem_ctrls1.wrQLenPdf::3                      1                       # What write queue length does an incoming req see (Count)
system.mem_ctrls1.wrQLenPdf::4                      1                       # What write queue length does an incoming req see (Count)
system.mem_ctrls1.wrQLenPdf::5                      1                       # What write queue length does an incoming req see (Count)
system.mem_ctrls1.wrQLenPdf::6                      1                       # What write queue length does an incoming req see (Count)
system.mem_ctrls1.wrQLenPdf::7                      1                       # What write queue length does an incoming req see (Count)
system.mem_ctrls1.wrQLenPdf::8                      1                       # What write queue length does an incoming req see (Count)
system.mem_ctrls1.wrQLenPdf::9                      1                       # What write queue length does an incoming req see (Count)
system.mem_ctrls1.wrQLenPdf::10                     1                       # What write queue length does an incoming req see (Count)
system.mem_ctrls1.wrQLenPdf::11                     1                       # What write queue length does an incoming req see (Count)
system.mem_ctrls1.wrQLenPdf::12                     1                       # What write queue length does an incoming req see (Count)
system.mem_ctrls1.wrQLenPdf::13                     1                       # What write queue length does an incoming req see (Count)
system.mem_ctrls1.wrQLenPdf::14                     1                       # What write queue length does an incoming req see (Count)
system.mem_ctrls1.wrQLenPdf::15                112340                       # What write queue length does an incoming req see (Count)
system.mem_ctrls1.wrQLenPdf::16                112341                       # What write queue length does an incoming req see (Count)
system.mem_ctrls1.wrQLenPdf::17                112518                       # What write queue length does an incoming req see (Count)
system.mem_ctrls1.wrQLenPdf::18                112518                       # What write queue length does an incoming req see (Count)
system.mem_ctrls1.wrQLenPdf::19                112518                       # What write queue length does an incoming req see (Count)
system.mem_ctrls1.wrQLenPdf::20                112518                       # What write queue length does an incoming req see (Count)
system.mem_ctrls1.wrQLenPdf::21                112517                       # What write queue length does an incoming req see (Count)
system.mem_ctrls1.wrQLenPdf::22                112517                       # What write queue length does an incoming req see (Count)
system.mem_ctrls1.wrQLenPdf::23                112517                       # What write queue length does an incoming req see (Count)
system.mem_ctrls1.wrQLenPdf::24                112517                       # What write queue length does an incoming req see (Count)
system.mem_ctrls1.wrQLenPdf::25                112517                       # What write queue length does an incoming req see (Count)
system.mem_ctrls1.wrQLenPdf::26                112517                       # What write queue length does an incoming req see (Count)
system.mem_ctrls1.wrQLenPdf::27                112517                       # What write queue length does an incoming req see (Count)
system.mem_ctrls1.wrQLenPdf::28                112517                       # What write queue length does an incoming req see (Count)
system.mem_ctrls1.wrQLenPdf::29                112517                       # What write queue length does an incoming req see (Count)
system.mem_ctrls1.wrQLenPdf::30                112517                       # What write queue length does an incoming req see (Count)
system.mem_ctrls1.wrQLenPdf::31                112517                       # What write queue length does an incoming req see (Count)
system.mem_ctrls1.wrQLenPdf::32                112517                       # What write queue length does an incoming req see (Count)
system.mem_ctrls1.wrQLenPdf::33                     0                       # What write queue length does an incoming req see (Count)
system.mem_ctrls1.wrQLenPdf::34                     0                       # What write queue length does an incoming req see (Count)
system.mem_ctrls1.wrQLenPdf::35                     0                       # What write queue length does an incoming req see (Count)
system.mem_ctrls1.wrQLenPdf::36                     0                       # What write queue length does an incoming req see (Count)
system.mem_ctrls1.wrQLenPdf::37                     0                       # What write queue length does an incoming req see (Count)
system.mem_ctrls1.wrQLenPdf::38                     0                       # What write queue length does an incoming req see (Count)
system.mem_ctrls1.wrQLenPdf::39                     0                       # What write queue length does an incoming req see (Count)
system.mem_ctrls1.wrQLenPdf::40                     0                       # What write queue length does an incoming req see (Count)
system.mem_ctrls1.wrQLenPdf::41                     0                       # What write queue length does an incoming req see (Count)
system.mem_ctrls1.wrQLenPdf::42                     0                       # What write queue length does an incoming req see (Count)
system.mem_ctrls1.wrQLenPdf::43                     0                       # What write queue length does an incoming req see (Count)
system.mem_ctrls1.wrQLenPdf::44                     0                       # What write queue length does an incoming req see (Count)
system.mem_ctrls1.wrQLenPdf::45                     0                       # What write queue length does an incoming req see (Count)
system.mem_ctrls1.wrQLenPdf::46                     0                       # What write queue length does an incoming req see (Count)
system.mem_ctrls1.wrQLenPdf::47                     0                       # What write queue length does an incoming req see (Count)
system.mem_ctrls1.wrQLenPdf::48                     0                       # What write queue length does an incoming req see (Count)
system.mem_ctrls1.wrQLenPdf::49                     0                       # What write queue length does an incoming req see (Count)
system.mem_ctrls1.wrQLenPdf::50                     0                       # What write queue length does an incoming req see (Count)
system.mem_ctrls1.wrQLenPdf::51                     0                       # What write queue length does an incoming req see (Count)
system.mem_ctrls1.wrQLenPdf::52                     0                       # What write queue length does an incoming req see (Count)
system.mem_ctrls1.wrQLenPdf::53                     0                       # What write queue length does an incoming req see (Count)
system.mem_ctrls1.wrQLenPdf::54                     0                       # What write queue length does an incoming req see (Count)
system.mem_ctrls1.wrQLenPdf::55                     0                       # What write queue length does an incoming req see (Count)
system.mem_ctrls1.wrQLenPdf::56                     0                       # What write queue length does an incoming req see (Count)
system.mem_ctrls1.wrQLenPdf::57                     0                       # What write queue length does an incoming req see (Count)
system.mem_ctrls1.wrQLenPdf::58                     0                       # What write queue length does an incoming req see (Count)
system.mem_ctrls1.wrQLenPdf::59                     0                       # What write queue length does an incoming req see (Count)
system.mem_ctrls1.wrQLenPdf::60                     0                       # What write queue length does an incoming req see (Count)
system.mem_ctrls1.wrQLenPdf::61                     0                       # What write queue length does an incoming req see (Count)
system.mem_ctrls1.wrQLenPdf::62                     0                       # What write queue length does an incoming req see (Count)
system.mem_ctrls1.wrQLenPdf::63                     0                       # What write queue length does an incoming req see (Count)
system.mem_ctrls1.rdPerTurnAround::samples       112517                       # Reads before turning the bus around for writes (Count)
system.mem_ctrls1.rdPerTurnAround::mean    952.349138                       # Reads before turning the bus around for writes (Count)
system.mem_ctrls1.rdPerTurnAround::stdev 58228.535393                       # Reads before turning the bus around for writes (Count)
system.mem_ctrls1.rdPerTurnAround::0-524287       112516    100.00%    100.00% # Reads before turning the bus around for writes (Count)
system.mem_ctrls1.rdPerTurnAround::1.93987e+07-1.99229e+07            1      0.00%    100.00% # Reads before turning the bus around for writes (Count)
system.mem_ctrls1.rdPerTurnAround::total       112517                       # Reads before turning the bus around for writes (Count)
system.mem_ctrls1.wrPerTurnAround::samples       112517                       # Writes before turning the bus around for reads (Count)
system.mem_ctrls1.wrPerTurnAround::mean     17.996845                       # Writes before turning the bus around for reads (Count)
system.mem_ctrls1.wrPerTurnAround::gmean    17.996656                       # Writes before turning the bus around for reads (Count)
system.mem_ctrls1.wrPerTurnAround::stdev     0.079318                       # Writes before turning the bus around for reads (Count)
system.mem_ctrls1.wrPerTurnAround::16             177      0.16%      0.16% # Writes before turning the bus around for reads (Count)
system.mem_ctrls1.wrPerTurnAround::17               1      0.00%      0.16% # Writes before turning the bus around for reads (Count)
system.mem_ctrls1.wrPerTurnAround::18          112339     99.84%    100.00% # Writes before turning the bus around for reads (Count)
system.mem_ctrls1.wrPerTurnAround::total       112517                       # Writes before turning the bus around for reads (Count)
system.mem_ctrls1.bytesReadWrQ                 103552                       # Total number of bytes read from write queue (Byte)
system.mem_ctrls1.bytesReadSys              857213574                       # Total read bytes from the system interface side (Byte)
[...]
system.mem_ctrls1.dram.bytesWritten::cpu.data     64071196                       # Number of bytes written to this memory (Byte)
system.mem_ctrls1.dram.bytesWritten::total     64071196                       # Number of bytes written to this memory (Byte)
system.mem_ctrls1.dram.numReads::cpu.inst     92134564                       # Number of read requests responded to by this memory (Count)
system.mem_ctrls1.dram.numReads::cpu.data     15024247                       # Number of read requests responded to by this memory (Count)
system.mem_ctrls1.dram.numReads::total      107158811                       # Number of read requests responded to by this memory (Count)
system.mem_ctrls1.dram.numWrites::cpu.data      8009870                       # Number of write requests responded to by this memory (Count)
system.mem_ctrls1.dram.numWrites::total       8009870                       # Number of write requests responded to by this memory (Count)
system.mem_ctrls1.dram.bwRead::cpu.inst      62061942                       # Total read bandwidth from this memory ((Byte/Second))
system.mem_ctrls1.dram.bwRead::cpu.data      10115557                       # Total read bandwidth from this memory ((Byte/Second))
system.mem_ctrls1.dram.bwRead::total         72177499                       # Total read bandwidth from this memory ((Byte/Second))
system.mem_ctrls1.dram.bwInstRead::cpu.inst     62061942                       # Instruction read bandwidth from this memory ((Byte/Second))
system.mem_ctrls1.dram.bwInstRead::total     62061942                       # Instruction read bandwidth from this memory ((Byte/Second))
system.mem_ctrls1.dram.bwWrite::cpu.data      5394803                       # Write bandwidth from this memory ((Byte/Second))
system.mem_ctrls1.dram.bwWrite::total         5394803                       # Write bandwidth from this memory ((Byte/Second))
system.mem_ctrls1.dram.bwTotal::cpu.inst     62061942                       # Total bandwidth to/from this memory ((Byte/Second))
system.mem_ctrls1.dram.bwTotal::cpu.data     15510360                       # Total bandwidth to/from this memory ((Byte/Second))
system.mem_ctrls1.dram.bwTotal::total        77572302                       # Total bandwidth to/from this memory ((Byte/Second))
system.mem_ctrls1.dram.readBursts           107155604                       # Number of DRAM read bursts (Count)
system.mem_ctrls1.dram.writeBursts            2024951                       # Number of DRAM write bursts (Count)
system.mem_ctrls1.dram.perBankRdBursts::0       689673                       # Per bank write bursts (Count)
system.mem_ctrls1.dram.perBankRdBursts::1       690932                       # Per bank write bursts (Count)
system.mem_ctrls1.dram.perBankRdBursts::2     17692412                       # Per bank write bursts (Count)
system.mem_ctrls1.dram.perBankRdBursts::3     75688707                       # Per bank write bursts (Count)
system.mem_ctrls1.dram.perBankRdBursts::4      4690183                       # Per bank write bursts (Count)
system.mem_ctrls1.dram.perBankRdBursts::5       693470                       # Per bank write bursts (Count)
system.mem_ctrls1.dram.perBankRdBursts::6       706708                       # Per bank write bursts (Count)
system.mem_ctrls1.dram.perBankRdBursts::7       693647                       # Per bank write bursts (Count)
system.mem_ctrls1.dram.perBankRdBursts::8       699062                       # Per bank write bursts (Count)
system.mem_ctrls1.dram.perBankRdBursts::9       689927                       # Per bank write bursts (Count)
system.mem_ctrls1.dram.perBankRdBursts::10       690527                       # Per bank write bursts (Count)
system.mem_ctrls1.dram.perBankRdBursts::11       696246                       # Per bank write bursts (Count)
system.mem_ctrls1.dram.perBankRdBursts::12       740669                       # Per bank write bursts (Count)
system.mem_ctrls1.dram.perBankRdBursts::13       692613                       # Per bank write bursts (Count)
system.mem_ctrls1.dram.perBankRdBursts::14       695094                       # Per bank write bursts (Count)
system.mem_ctrls1.dram.perBankRdBursts::15       705734                       # Per bank write bursts (Count)
system.mem_ctrls1.dram.perBankWrBursts::0       126403                       # Per bank write bursts (Count)
system.mem_ctrls1.dram.perBankWrBursts::1       126506                       # Per bank write bursts (Count)
system.mem_ctrls1.dram.perBankWrBursts::2       126443                       # Per bank write bursts (Count)
system.mem_ctrls1.dram.perBankWrBursts::3       126462                       # Per bank write bursts (Count)
system.mem_ctrls1.dram.perBankWrBursts::4       126469                       # Per bank write bursts (Count)
system.mem_ctrls1.dram.perBankWrBursts::5       126545                       # Per bank write bursts (Count)
system.mem_ctrls1.dram.perBankWrBursts::6       126454                       # Per bank write bursts (Count)
system.mem_ctrls1.dram.perBankWrBursts::7       126478                       # Per bank write bursts (Count)
system.mem_ctrls1.dram.perBankWrBursts::8       126653                       # Per bank write bursts (Count)
system.mem_ctrls1.dram.perBankWrBursts::9       126628                       # Per bank write bursts (Count)
system.mem_ctrls1.dram.perBankWrBursts::10       126604                       # Per bank write bursts (Count)
system.mem_ctrls1.dram.perBankWrBursts::11       126717                       # Per bank write bursts (Count)
system.mem_ctrls1.dram.perBankWrBursts::12       126634                       # Per bank write bursts (Count)
system.mem_ctrls1.dram.perBankWrBursts::13       126782                       # Per bank write bursts (Count)
system.mem_ctrls1.dram.perBankWrBursts::14       126583                       # Per bank write bursts (Count)
system.mem_ctrls1.dram.perBankWrBursts::15       126590                       # Per bank write bursts (Count)
system.mem_ctrls1.dram.totQLat           1646132168000                       # Total ticks spent queuing (Tick)
system.mem_ctrls1.dram.totBusLat         214311208000                       # Total ticks spent in databus transfers (Tick)
system.mem_ctrls1.dram.totMemAccLat      3789244248000                       # Total ticks spent from burst creation until serviced by the DRAM (Tick)
system.mem_ctrls1.dram.avgQLat               15362.07                       # Average queueing delay per DRAM burst ((Tick/Count))
system.mem_ctrls1.dram.avgBusLat              2000.00                       # Average bus latency per DRAM burst ((Tick/Count))
system.mem_ctrls1.dram.avgMemAccLat          35362.07                       # Average memory access latency per DRAM burst ((Tick/Count))
system.mem_ctrls1.dram.readRowHits               4432                       # Number of row buffer hits during reads (Count)
system.mem_ctrls1.dram.writeRowHits           1736720                       # Number of row buffer hits during writes (Count)
system.mem_ctrls1.dram.readRowHitRate            0.00                       # Row buffer hit rate for reads (Ratio)
system.mem_ctrls1.dram.writeRowHitRate          85.77                       # Row buffer hit rate for writes (Ratio)
system.mem_ctrls1.dram.bytesPerActivate::samples    107439403                       # Bytes accessed per row activation (Byte)
system.mem_ctrls1.dram.bytesPerActivate::mean    32.518589                       # Bytes accessed per row activation (Byte)
system.mem_ctrls1.dram.bytesPerActivate::gmean    32.156953                       # Bytes accessed per row activation (Byte)
system.mem_ctrls1.dram.bytesPerActivate::stdev    10.931922                       # Bytes accessed per row activation (Byte)
system.mem_ctrls1.dram.bytesPerActivate::32-63    107167170     99.75%     99.75% # Bytes accessed per row activation (Byte)
system.mem_ctrls1.dram.bytesPerActivate::64-95        14139      0.01%     99.76% # Bytes accessed per row activation (Byte)
system.mem_ctrls1.dram.bytesPerActivate::96-127         9566      0.01%     99.77% # Bytes accessed per row activation (Byte)
system.mem_ctrls1.dram.bytesPerActivate::128-159        10272      0.01%     99.78% # Bytes accessed per row activation (Byte)
system.mem_ctrls1.dram.bytesPerActivate::160-191        35074      0.03%     99.81% # Bytes accessed per row activation (Byte)
system.mem_ctrls1.dram.bytesPerActivate::192-223         5120      0.00%     99.82% # Bytes accessed per row activation (Byte)
system.mem_ctrls1.dram.bytesPerActivate::224-255        21436      0.02%     99.84% # Bytes accessed per row activation (Byte)
system.mem_ctrls1.dram.bytesPerActivate::256-287        87382      0.08%     99.92% # Bytes accessed per row activation (Byte)
system.mem_ctrls1.dram.bytesPerActivate::288-319        32399      0.03%     99.95% # Bytes accessed per row activation (Byte)
system.mem_ctrls1.dram.bytesPerActivate::320-351        56780      0.05%    100.00% # Bytes accessed per row activation (Byte)
system.mem_ctrls1.dram.bytesPerActivate::352-383           53      0.00%    100.00% # Bytes accessed per row activation (Byte)
system.mem_ctrls1.dram.bytesPerActivate::384-415            9      0.00%    100.00% # Bytes accessed per row activation (Byte)
system.mem_ctrls1.dram.bytesPerActivate::416-447            1      0.00%    100.00% # Bytes accessed per row activation (Byte)
system.mem_ctrls1.dram.bytesPerActivate::448-479            2      0.00%    100.00% # Bytes accessed per row activation (Byte)
system.mem_ctrls1.dram.bytesPerActivate::total    107439403                       # Bytes accessed per row activation (Byte)
system.mem_ctrls1.dram.bytesRead           3428979328                       # Total bytes read (Byte)
system.mem_ctrls1.dram.bytesWritten          64798432                       # Total bytes written (Byte)
system.mem_ctrls1.dram.avgRdBW             288.720524                       # Average DRAM read bandwidth in MiBytes/s ((Byte/Second))
system.mem_ctrls1.dram.avgWrBW               5.456037                       # Average DRAM write bandwidth in MiBytes/s ((Byte/Second))
system.mem_ctrls1.dram.peakBW                16000.00                       # Theoretical peak bandwidth in MiByte/s ((Byte/Second))
system.mem_ctrls1.dram.busUtil                   1.84                       # Data bus utilization in percentage (Ratio)
system.mem_ctrls1.dram.busUtilRead               1.80                       # Data bus utilization in percentage for reads (Ratio)
system.mem_ctrls1.dram.busUtilWrite              0.03                       # Data bus utilization in percentage for writes (Ratio)
system.mem_ctrls1.dram.pageHitRate               1.59                       # Row buffer hit rate, read and write combined (Ratio)
system.mem_ctrls1.dram.power_state.pwrStateResidencyTicks::UNDEFINED 11876465455000                       # Cumulative time (in ticks) in various power states (Tick)
system.mem_ctrls1.dram.rank0.actEnergy              0                       # Energy for activate commands per rank (pJ) (Joule)
system.mem_ctrls1.dram.rank0.preEnergy              0                       # Energy for precharge commands per rank (pJ) (Joule)
system.mem_ctrls1.dram.rank0.readEnergy             0                       # Energy for read commands per rank (pJ) (Joule)
system.mem_ctrls1.dram.rank0.writeEnergy            0                       # Energy for write commands per rank (pJ) (Joule)
system.mem_ctrls1.dram.rank0.refreshEnergy            0                       # Energy for refresh commands per rank (pJ) (Joule)
system.mem_ctrls1.dram.rank0.actBackEnergy            0                       # Energy for active background per rank (pJ) (Joule)
system.mem_ctrls1.dram.rank0.preBackEnergy            0                       # Energy for precharge background per rank (pJ) (Joule)
system.mem_ctrls1.dram.rank0.actPowerDownEnergy            0                       # Energy for active power-down per rank (pJ) (Joule)
system.mem_ctrls1.dram.rank0.prePowerDownEnergy            0                       # Energy for precharge power-down per rank (pJ) (Joule)
system.mem_ctrls1.dram.rank0.selfRefreshEnergy            0                       # Energy for self refresh per rank (pJ) (Joule)
system.mem_ctrls1.dram.rank0.totalEnergy            0                       # Total energy per rank (pJ) (Joule)
system.mem_ctrls1.dram.rank0.averagePower            0                       # Core power per rank (mW) (Watt)
system.mem_ctrls1.dram.rank0.totalIdleTime            0                       # Total Idle time Per DRAM Rank (Tick)
system.mem_ctrls1.dram.rank0.pwrStateTime::IDLE 6592131628000                       # Time in different power states (Tick)
system.mem_ctrls1.dram.rank0.pwrStateTime::REF 672367960000                       # Time in different power states (Tick)
system.mem_ctrls1.dram.rank0.pwrStateTime::SREF            0                       # Time in different power states (Tick)
system.mem_ctrls1.dram.rank0.pwrStateTime::PRE_PDN            0                       # Time in different power states (Tick)
system.mem_ctrls1.dram.rank0.pwrStateTime::ACT 4611965867000                       # Time in different power states (Tick)
system.mem_ctrls1.dram.rank0.pwrStateTime::ACT_PDN            0                       # Time in different power states (Tick)
system.mem_ctrls1.power_state.pwrStateResidencyTicks::UNDEFINED 11876465455000                       # Cumulative time (in ticks) in various power states (Tick)
system.membus.transDist::ReadReq            176364101                       # Transaction distribution (Count)
system.membus.transDist::ReadResp           176364101                       # Transaction distribution (Count)
system.membus.transDist::WriteReq            16020613                       # Transaction distribution (Count)
system.membus.transDist::WriteResp           16020613                       # Transaction distribution (Count)
system.membus.pktCount_system.cpu.icache_port::system.mem_ctrls0.port    114350796                       # Packet count per connected requestor and responder (Count)
system.membus.pktCount_system.cpu.icache_port::system.mem_ctrls1.port    184269128                       # Packet count per connected requestor and responder (Count)
system.membus.pktCount_system.cpu.icache_port::total    298619924                       # Packet count per connected requestor and responder (Count)
system.membus.pktCount_system.cpu.dcache_port::system.mem_ctrls0.port     40081270                       # Packet count per connected requestor and responder (Count)
system.membus.pktCount_system.cpu.dcache_port::system.mem_ctrls1.port     46068234                       # Packet count per connected requestor and responder (Count)
system.membus.pktCount_system.cpu.dcache_port::total     86149504                       # Packet count per connected requestor and responder (Count)
system.membus.pktCount::total               384769428                       # Packet count per connected requestor and responder (Count)
system.membus.pktSize_system.cpu.icache_port::system.mem_ctrls0.port    457403184                       # Cumulative packet size per connected requestor and responder (Byte)
system.membus.pktSize_system.cpu.icache_port::system.mem_ctrls1.port    737076512                       # Cumulative packet size per connected requestor and responder (Byte)
system.membus.pktSize_system.cpu.icache_port::total   1194479696                       # Cumulative packet size per connected requestor and responder (Byte)
system.membus.pktSize_system.cpu.dcache_port::system.mem_ctrls0.port    160248067                       # Cumulative packet size per connected requestor and responder (Byte)
system.membus.pktSize_system.cpu.dcache_port::system.mem_ctrls1.port    184208258                       # Cumulative packet size per connected requestor and responder (Byte)
system.membus.pktSize_system.cpu.dcache_port::total    344456325                       # Cumulative packet size per connected requestor and responder (Byte)
system.membus.pktSize::total               1538936021                       # Cumulative packet size per connected requestor and responder (Byte)
system.membus.snoops                                0                       # Total snoops (Count)
system.membus.snoopTraffic                          0                       # Total snoop traffic (Byte)
system.membus.snoopFanout::samples          192384714                       # Request fanout histogram (Count)
system.membus.snoopFanout::mean                     0                       # Request fanout histogram (Count)
system.membus.snoopFanout::stdev                    0                       # Request fanout histogram (Count)
system.membus.snoopFanout::underflows               0      0.00%      0.00% # Request fanout histogram (Count)
system.membus.snoopFanout::0                192384714    100.00%    100.00% # Request fanout histogram (Count)
system.membus.snoopFanout::1                        0      0.00%    100.00% # Request fanout histogram (Count)
system.membus.snoopFanout::overflows                0      0.00%    100.00% # Request fanout histogram (Count)
system.membus.snoopFanout::min_value                0                       # Request fanout histogram (Count)
system.membus.snoopFanout::max_value                0                       # Request fanout histogram (Count)
system.membus.snoopFanout::total            192384714                       # Request fanout histogram (Count)
system.membus.power_state.pwrStateResidencyTicks::UNDEFINED 11876465455000                       # Cumulative time (in ticks) in various power states (Tick)
system.membus.reqLayer2.occupancy         85226776000                       # Layer occupancy (ticks) (Tick)
system.membus.reqLayer2.utilization               0.0                       # Layer utilization (Ratio)
system.membus.reqLayer3.occupancy        123178551000                       # Layer occupancy (ticks) (Tick)
system.membus.reqLayer3.utilization               0.0                       # Layer utilization (Ratio)
system.membus.respLayer1.occupancy       298619924000                       # Layer occupancy (ticks) (Tick)
system.membus.respLayer1.utilization              0.0                       # Layer utilization (Ratio)
system.membus.respLayer2.occupancy        70128891000                       # Layer occupancy (ticks) (Tick)
system.membus.respLayer2.utilization              0.0                       # Layer utilization (Ratio)
system.membus.snoop_filter.totRequests              0                       # Total number of requests made to the snoop filter. (Count)
system.membus.snoop_filter.hitSingleRequests            0                       # Number of requests hitting in the snoop filter with a single holder of the requested data. (Count)
system.membus.snoop_filter.hitMultiRequests            0                       # Number of requests hitting in the snoop filter with multiple (>1) holders of the requested data. (Count)
system.membus.snoop_filter.totSnoops                0                       # Total number of snoops made to the snoop filter. (Count)
system.membus.snoop_filter.hitSingleSnoops            0                       # Number of snoops hitting in the snoop filter with a single holder of the requested data. (Count)
system.membus.snoop_filter.hitMultiSnoops            0                       # Number of snoops hitting in the snoop filter with multiple (>1) holders of the requested data. (Count)
system.voltage_domain.voltage                       1                       # Voltage in Volts (Volt)
system.workload.inst.arm                            0                       # number of arm instructions executed (Count)
system.workload.inst.quiesce                        0                       # number of quiesce instructions executed (Count)

---------- End Simulation Statistics   ----------
