
---------- Begin Simulation Statistics ----------
simSeconds                                   0.072943                       # Number of seconds simulated (Second)
simTicks                                  72943279750                       # Number of ticks simulated (Tick)
finalTick                                 72943279750                       # Number of ticks from beginning of simulation (restored from checkpoints and never reset) (Tick)
simFreq                                  1000000000000                       # The number of ticks per simulated second ((Tick/Second))
hostSeconds                                   2195.88                       # Real time elapsed on the host (Second)
hostTickRate                                 33218313                       # The number of ticks simulated per host second (ticks/s) ((Tick/Second))
hostMemory                                    7793076                       # Number of bytes of host memory used (Byte)
simInsts                                    102732137                       # Number of instructions simulated (Count)
simOps                                      185029408                       # Number of ops (including micro ops) simulated (Count)
hostInstRate                                    46784                       # Simulator instruction rate (inst/s) ((Count/Second))
hostOpRate                                      84262                       # Simulator op (including micro ops) rate (op/s) ((Count/Second))
system.clk_domain.clock                          1000                       # Clock period in ticks (Tick)
system.cpu0.numCycles                       291773120                       # Number of cpu cycles simulated (Cycle)
system.cpu0.numWorkItemsStarted                     0                       # Number of work items this cpu started (Count)
system.cpu0.numWorkItemsCompleted                   0                       # Number of work items this cpu completed (Count)
system.cpu0.instsAdded                      117296655                       # Number of instructions added to the IQ (excludes non-spec) (Count)
system.cpu0.nonSpecInstsAdded                    1238                       # Number of non-speculative instructions added to the IQ (Count)
system.cpu0.instsIssued                     117301893                       # Number of instructions issued (Count)
system.cpu0.squashedInstsIssued                  2056                       # Number of squashed instructions issued (Count)
system.cpu0.squashedInstsExamined            48353139                       # Number of squashed instructions iterated over during squash; mainly for profiling (Count)
system.cpu0.squashedOperandsExamined           742123                       # Number of squashed operands that are examined and possibly removed from graph (Count)
system.cpu0.squashedNonSpecRemoved                442                       # Number of squashed non-spec instructions that were removed (Count)
system.cpu0.numIssuedDist::samples          291370836                       # Number of insts issued each cycle (Count)
system.cpu0.numIssuedDist::mean              0.402586                       # Number of insts issued each cycle (Count)
system.cpu0.numIssuedDist::stdev             1.372320                       # Number of insts issued each cycle (Count)
system.cpu0.numIssuedDist::underflows               0      0.00%      0.00% # Number of insts issued each cycle (Count)
system.cpu0.numIssuedDist::0                258150270     88.60%     88.60% # Number of insts issued each cycle (Count)
system.cpu0.numIssuedDist::1                  8707115      2.99%     91.59% # Number of insts issued each cycle (Count)
system.cpu0.numIssuedDist::2                  6616842      2.27%     93.86% # Number of insts issued each cycle (Count)
system.cpu0.numIssuedDist::3                  2904030      1.00%     94.85% # Number of insts issued each cycle (Count)
system.cpu0.numIssuedDist::4                  4179431      1.43%     96.29% # Number of insts issued each cycle (Count)
system.cpu0.numIssuedDist::5                  3265029      1.12%     97.41% # Number of insts issued each cycle (Count)
system.cpu0.numIssuedDist::6                  2373523      0.81%     98.22% # Number of insts issued each cycle (Count)
system.cpu0.numIssuedDist::7                  2031771      0.70%     98.92% # Number of insts issued each cycle (Count)
system.cpu0.numIssuedDist::8                  3142825      1.08%    100.00% # Number of insts issued each cycle (Count)
system.cpu0.numIssuedDist::overflows                0      0.00%    100.00% # Number of insts issued each cycle (Count)
system.cpu0.numIssuedDist::min_value                0                       # Number of insts issued each cycle (Count)
system.cpu0.numIssuedDist::max_value                8                       # Number of insts issued each cycle (Count)
system.cpu0.numIssuedDist::total            291370836                       # Number of insts issued each cycle (Count)
system.cpu0.statFuBusy::No_OpClass                  0      0.00%      0.00% # attempts to use FU when none available (Count)
system.cpu0.statFuBusy::IntAlu                  65355      0.84%      0.84% # attempts to use FU when none available (Count)
system.cpu0.statFuBusy::IntMult                     0      0.00%      0.84% # attempts to use FU when none available (Count)
system.cpu0.statFuBusy::IntDiv                      0      0.00%      0.84% # attempts to use FU when none available (Count)
system.cpu0.statFuBusy::FloatAdd                    0      0.00%      0.84% # attempts to use FU when none available (Count)
system.cpu0.statFuBusy::FloatCmp                    0      0.00%      0.84% # attempts to use FU when none available (Count)
system.cpu0.statFuBusy::FloatCvt                    7      0.00%      0.84% # attempts to use FU when none available (Count)
system.cpu0.statFuBusy::FloatMult                   0      0.00%      0.84% # attempts to use FU when none available (Count)
system.cpu0.statFuBusy::FloatMultAcc                0      0.00%      0.84% # attempts to use FU when none available (Count)
system.cpu0.statFuBusy::FloatDiv                    0      0.00%      0.84% # attempts to use FU when none available (Count)
system.cpu0.statFuBusy::FloatMisc                   0      0.00%      0.84% # attempts to use FU when none available (Count)
system.cpu0.statFuBusy::FloatSqrt                   0      0.00%      0.84% # attempts to use FU when none available (Count)
system.cpu0.statFuBusy::SimdAdd                     2      0.00%      0.84% # attempts to use FU when none available (Count)
system.cpu0.statFuBusy::SimdAddAcc                  0      0.00%      0.84% # attempts to use FU when none available (Count)
system.cpu0.statFuBusy::SimdAlu                   109      0.00%      0.84% # attempts to use FU when none available (Count)
system.cpu0.statFuBusy::SimdCmp                     0      0.00%      0.84% # attempts to use FU when none available (Count)
system.cpu0.statFuBusy::SimdCvt                    88      0.00%      0.84% # attempts to use FU when none available (Count)
system.cpu0.statFuBusy::SimdMisc                   49      0.00%      0.84% # attempts to use FU when none available (Count)
system.cpu0.statFuBusy::SimdMult                    0      0.00%      0.84% # attempts to use FU when none available (Count)
system.cpu0.statFuBusy::SimdMultAcc                 0      0.00%      0.84% # attempts to use FU when none available (Count)
system.cpu0.statFuBusy::SimdShift                  15      0.00%      0.84% # attempts to use FU when none available (Count)
system.cpu0.statFuBusy::SimdShiftAcc                0      0.00%      0.84% # attempts to use FU when none available (Count)
system.cpu0.statFuBusy::SimdDiv                     0      0.00%      0.84% # attempts to use FU when none available (Count)
system.cpu0.statFuBusy::SimdSqrt                    0      0.00%      0.84% # attempts to use FU when none available (Count)
system.cpu0.statFuBusy::SimdFloatAdd           749490      9.59%     10.43% # attempts to use FU when none available (Count)
system.cpu0.statFuBusy::SimdFloatAlu                0      0.00%     10.43% # attempts to use FU when none available (Count)
system.cpu0.statFuBusy::SimdFloatCmp                0      0.00%     10.43% # attempts to use FU when none available (Count)
system.cpu0.statFuBusy::SimdFloatCvt                0      0.00%     10.43% # attempts to use FU when none available (Count)
system.cpu0.statFuBusy::SimdFloatDiv                0      0.00%     10.43% # attempts to use FU when none available (Count)
system.cpu0.statFuBusy::SimdFloatMisc               0      0.00%     10.43% # attempts to use FU when none available (Count)
system.cpu0.statFuBusy::SimdFloatMult               0      0.00%     10.43% # attempts to use FU when none available (Count)
system.cpu0.statFuBusy::SimdFloatMultAcc            0      0.00%     10.43% # attempts to use FU when none available (Count)
system.cpu0.statFuBusy::SimdFloatSqrt               0      0.00%     10.43% # attempts to use FU when none available (Count)
system.cpu0.statFuBusy::SimdReduceAdd               0      0.00%     10.43% # attempts to use FU when none available (Count)
system.cpu0.statFuBusy::SimdReduceAlu               0      0.00%     10.43% # attempts to use FU when none available (Count)
system.cpu0.statFuBusy::SimdReduceCmp               0      0.00%     10.43% # attempts to use FU when none available (Count)
system.cpu0.statFuBusy::SimdFloatReduceAdd            0      0.00%     10.43% # attempts to use FU when none available (Count)
system.cpu0.statFuBusy::SimdFloatReduceCmp            0      0.00%     10.43% # attempts to use FU when none available (Count)
system.cpu0.statFuBusy::SimdAes                     0      0.00%     10.43% # attempts to use FU when none available (Count)
system.cpu0.statFuBusy::SimdAesMix                  0      0.00%     10.43% # attempts to use FU when none available (Count)
system.cpu0.statFuBusy::SimdSha1Hash                0      0.00%     10.43% # attempts to use FU when none available (Count)
system.cpu0.statFuBusy::SimdSha1Hash2               0      0.00%     10.43% # attempts to use FU when none available (Count)
system.cpu0.statFuBusy::SimdSha256Hash              0      0.00%     10.43% # attempts to use FU when none available (Count)
system.cpu0.statFuBusy::SimdSha256Hash2             0      0.00%     10.43% # attempts to use FU when none available (Count)
system.cpu0.statFuBusy::SimdShaSigma2               0      0.00%     10.43% # attempts to use FU when none available (Count)
system.cpu0.statFuBusy::SimdShaSigma3               0      0.00%     10.43% # attempts to use FU when none available (Count)
system.cpu0.statFuBusy::SimdPredAlu                 0      0.00%     10.43% # attempts to use FU when none available (Count)
system.cpu0.statFuBusy::MemRead                751539      9.61%     20.04% # attempts to use FU when none available (Count)
system.cpu0.statFuBusy::MemWrite              1750908     22.40%     42.43% # attempts to use FU when none available (Count)
system.cpu0.statFuBusy::FloatMemRead          3875456     49.57%     92.00% # attempts to use FU when none available (Count)
system.cpu0.statFuBusy::FloatMemWrite          625227      8.00%    100.00% # attempts to use FU when none available (Count)
system.cpu0.statFuBusy::IprAccess                   0      0.00%    100.00% # attempts to use FU when none available (Count)
system.cpu0.statFuBusy::InstPrefetch                0      0.00%    100.00% # attempts to use FU when none available (Count)
system.cpu0.statIssuedInstType_0::No_OpClass      5515060      4.70%      4.70% # Number of instructions issued per FU type, per thread (Count)
system.cpu0.statIssuedInstType_0::IntAlu     47292232     40.32%     45.02% # Number of instructions issued per FU type, per thread (Count)
system.cpu0.statIssuedInstType_0::IntMult          281      0.00%     45.02% # Number of instructions issued per FU type, per thread (Count)
system.cpu0.statIssuedInstType_0::IntDiv         3062      0.00%     45.02% # Number of instructions issued per FU type, per thread (Count)
system.cpu0.statIssuedInstType_0::FloatAdd      4255739      3.63%     48.65% # Number of instructions issued per FU type, per thread (Count)
system.cpu0.statIssuedInstType_0::FloatCmp            0      0.00%     48.65% # Number of instructions issued per FU type, per thread (Count)
system.cpu0.statIssuedInstType_0::FloatCvt          502      0.00%     48.65% # Number of instructions issued per FU type, per thread (Count)
system.cpu0.statIssuedInstType_0::FloatMult            0      0.00%     48.65% # Number of instructions issued per FU type, per thread (Count)
system.cpu0.statIssuedInstType_0::FloatMultAcc            0      0.00%     48.65% # Number of instructions issued per FU type, per thread (Count)
system.cpu0.statIssuedInstType_0::FloatDiv            0      0.00%     48.65% # Number of instructions issued per FU type, per thread (Count)
system.cpu0.statIssuedInstType_0::FloatMisc            0      0.00%     48.65% # Number of instructions issued per FU type, per thread (Count)
system.cpu0.statIssuedInstType_0::FloatSqrt            0      0.00%     48.65% # Number of instructions issued per FU type, per thread (Count)
system.cpu0.statIssuedInstType_0::SimdAdd         2681      0.00%     48.65% # Number of instructions issued per FU type, per thread (Count)
system.cpu0.statIssuedInstType_0::SimdAddAcc            0      0.00%     48.65% # Number of instructions issued per FU type, per thread (Count)
system.cpu0.statIssuedInstType_0::SimdAlu        32034      0.03%     48.68% # Number of instructions issued per FU type, per thread (Count)
system.cpu0.statIssuedInstType_0::SimdCmp           68      0.00%     48.68% # Number of instructions issued per FU type, per thread (Count)
system.cpu0.statIssuedInstType_0::SimdCvt         6177      0.01%     48.68% # Number of instructions issued per FU type, per thread (Count)
system.cpu0.statIssuedInstType_0::SimdMisc         4075      0.00%     48.69% # Number of instructions issued per FU type, per thread (Count)
system.cpu0.statIssuedInstType_0::SimdMult            0      0.00%     48.69% # Number of instructions issued per FU type, per thread (Count)
system.cpu0.statIssuedInstType_0::SimdMultAcc            0      0.00%     48.69% # Number of instructions issued per FU type, per thread (Count)
system.cpu0.statIssuedInstType_0::SimdShift         1512      0.00%     48.69% # Number of instructions issued per FU type, per thread (Count)
system.cpu0.statIssuedInstType_0::SimdShiftAcc            0      0.00%     48.69% # Number of instructions issued per FU type, per thread (Count)
system.cpu0.statIssuedInstType_0::SimdDiv            0      0.00%     48.69% # Number of instructions issued per FU type, per thread (Count)
system.cpu0.statIssuedInstType_0::SimdSqrt            0      0.00%     48.69% # Number of instructions issued per FU type, per thread (Count)
system.cpu0.statIssuedInstType_0::SimdFloatAdd      8258973      7.04%     55.73% # Number of instructions issued per FU type, per thread (Count)
system.cpu0.statIssuedInstType_0::SimdFloatAlu            0      0.00%     55.73% # Number of instructions issued per FU type, per thread (Count)
system.cpu0.statIssuedInstType_0::SimdFloatCmp           24      0.00%     55.73% # Number of instructions issued per FU type, per thread (Count)
system.cpu0.statIssuedInstType_0::SimdFloatCvt      3017632      2.57%     58.30% # Number of instructions issued per FU type, per thread (Count)
system.cpu0.statIssuedInstType_0::SimdFloatDiv           18      0.00%     58.30% # Number of instructions issued per FU type, per thread (Count)
system.cpu0.statIssuedInstType_0::SimdFloatMisc            0      0.00%     58.30% # Number of instructions issued per FU type, per thread (Count)
system.cpu0.statIssuedInstType_0::SimdFloatMult      2006497      1.71%     60.01% # Number of instructions issued per FU type, per thread (Count)
system.cpu0.statIssuedInstType_0::SimdFloatMultAcc            0      0.00%     60.01% # Number of instructions issued per FU type, per thread (Count)
system.cpu0.statIssuedInstType_0::SimdFloatSqrt            0      0.00%     60.01% # Number of instructions issued per FU type, per thread (Count)
system.cpu0.statIssuedInstType_0::SimdReduceAdd            0      0.00%     60.01% # Number of instructions issued per FU type, per thread (Count)
system.cpu0.statIssuedInstType_0::SimdReduceAlu            0      0.00%     60.01% # Number of instructions issued per FU type, per thread (Count)
system.cpu0.statIssuedInstType_0::SimdReduceCmp            0      0.00%     60.01% # Number of instructions issued per FU type, per thread (Count)
system.cpu0.statIssuedInstType_0::SimdFloatReduceAdd            0      0.00%     60.01% # Number of instructions issued per FU type, per thread (Count)
system.cpu0.statIssuedInstType_0::SimdFloatReduceCmp            0      0.00%     60.01% # Number of instructions issued per FU type, per thread (Count)
system.cpu0.statIssuedInstType_0::SimdAes            0      0.00%     60.01% # Number of instructions issued per FU type, per thread (Count)
system.cpu0.statIssuedInstType_0::SimdAesMix            0      0.00%     60.01% # Number of instructions issued per FU type, per thread (Count)
system.cpu0.statIssuedInstType_0::SimdSha1Hash            0      0.00%     60.01% # Number of instructions issued per FU type, per thread (Count)
system.cpu0.statIssuedInstType_0::SimdSha1Hash2            0      0.00%     60.01% # Number of instructions issued per FU type, per thread (Count)
system.cpu0.statIssuedInstType_0::SimdSha256Hash            0      0.00%     60.01% # Number of instructions issued per FU type, per thread (Count)
system.cpu0.statIssuedInstType_0::SimdSha256Hash2            0      0.00%     60.01% # Number of instructions issued per FU type, per thread (Count)
system.cpu0.statIssuedInstType_0::SimdShaSigma2            0      0.00%     60.01% # Number of instructions issued per FU type, per thread (Count)
system.cpu0.statIssuedInstType_0::SimdShaSigma3            0      0.00%     60.01% # Number of instructions issued per FU type, per thread (Count)
system.cpu0.statIssuedInstType_0::SimdPredAlu            0      0.00%     60.01% # Number of instructions issued per FU type, per thread (Count)
system.cpu0.statIssuedInstType_0::MemRead      2927561      2.50%     62.51% # Number of instructions issued per FU type, per thread (Count)
system.cpu0.statIssuedInstType_0::MemWrite      6308113      5.38%     67.89% # Number of instructions issued per FU type, per thread (Count)
system.cpu0.statIssuedInstType_0::FloatMemRead     22415481     19.11%     87.00% # Number of instructions issued per FU type, per thread (Count)
system.cpu0.statIssuedInstType_0::FloatMemWrite     15254171     13.00%    100.00% # Number of instructions issued per FU type, per thread (Count)
system.cpu0.statIssuedInstType_0::IprAccess            0      0.00%    100.00% # Number of instructions issued per FU type, per thread (Count)
system.cpu0.statIssuedInstType_0::InstPrefetch            0      0.00%    100.00% # Number of instructions issued per FU type, per thread (Count)
system.cpu0.statIssuedInstType_0::total     117301893                       # Number of instructions issued per FU type, per thread (Count)
system.cpu0.issueRate                        0.402031                       # Inst issue rate ((Count/Cycle))
system.cpu0.fuBusy                            7818245                       # FU busy when requested (Count)
system.cpu0.fuBusyRate                       0.066651                       # FU busy rate (busy events/executed inst) ((Count/Count))
system.cpu0.intInstQueueReads               409959083                       # Number of integer instruction queue reads (Count)
system.cpu0.intInstQueueWrites               85912121                       # Number of integer instruction queue writes (Count)
system.cpu0.intInstQueueWakeupAccesses       52490936                       # Number of integer instruction queue wakeup accesses (Count)
system.cpu0.fpInstQueueReads                123835840                       # Number of floating instruction queue reads (Count)
system.cpu0.fpInstQueueWrites                79739252                       # Number of floating instruction queue writes (Count)
system.cpu0.fpInstQueueWakeupAccesses        59133871                       # Number of floating instruction queue wakeup accesses (Count)
system.cpu0.vecInstQueueReads                       0                       # Number of vector instruction queue reads (Count)
system.cpu0.vecInstQueueWrites                      0                       # Number of vector instruction queue writes (Count)
system.cpu0.vecInstQueueWakeupAccesses              0                       # Number of vector instruction queue wakeup accesses (Count)
system.cpu0.intAluAccesses                   55037170                       # Number of integer alu accesses (Count)
system.cpu0.fpAluAccesses                    64567908                       # Number of floating point alu accesses (Count)
system.cpu0.vecAluAccesses                          0                       # Number of vector alu accesses (Count)
system.cpu0.numInsts                        117275668                       # Number of executed instructions (Count)
system.cpu0.numLoadInsts                     25337023                       # Number of load instructions executed (Count)
system.cpu0.numSquashedInsts                    26225                       # Number of squashed instructions skipped in execute (Count)
system.cpu0.numSwp                                  0                       # Number of swp insts executed (Count)
system.cpu0.numNop                                  0                       # Number of nop insts executed (Count)
system.cpu0.numRefs                          46898296                       # Number of memory reference insts executed (Count)
system.cpu0.numBranches                       6638565                       # Number of branches executed (Count)
system.cpu0.numStoreInsts                    21561273                       # Number of stores executed (Count)
system.cpu0.numRate                          0.401941                       # Inst execution rate ((Count/Cycle))
system.cpu0.timesIdled                           1745                       # Number of times that the entire CPU went into an idle state and unscheduled itself (Count)
system.cpu0.idleCycles                         402284                       # Total number of cycles that the CPU has spent unscheduled due to idling (Cycle)
system.cpu0.committedInsts                   37813028                       # Number of Instructions Simulated (Count)
system.cpu0.committedOps                     68944748                       # Number of Ops (including micro ops) Simulated (Count)
system.cpu0.cpi                              7.716206                       # CPI: Cycles Per Instruction ((Cycle/Count))
system.cpu0.totalCpi                         7.716206                       # CPI: Total CPI of All Threads ((Cycle/Count))
system.cpu0.ipc                              0.129597                       # IPC: Instructions Per Cycle ((Count/Cycle))
system.cpu0.totalIpc                         0.129597                       # IPC: Total IPC of All Threads ((Count/Cycle))
system.cpu0.intRegfileReads                  90730878                       # Number of integer regfile reads (Count)
system.cpu0.intRegfileWrites                 33196865                       # Number of integer regfile writes (Count)
system.cpu0.fpRegfileReads                   60198502                       # Number of floating regfile reads (Count)
system.cpu0.fpRegfileWrites                  40872257                       # Number of floating regfile writes (Count)
system.cpu0.ccRegfileReads                   39139036                       # number of cc regfile reads (Count)
system.cpu0.ccRegfileWrites                  29061961                       # number of cc regfile writes (Count)
system.cpu0.miscRegfileReads                 60194897                       # number of misc regfile reads (Count)
system.cpu0.miscRegfileWrites                     234                       # number of misc regfile writes (Count)
system.cpu0.MemDepUnit__0.insertedLoads      25224656                       # Number of loads inserted to the mem dependence unit. (Count)
system.cpu0.MemDepUnit__0.insertedStores     21567793                       # Number of stores inserted to the mem dependence unit. (Count)
system.cpu0.MemDepUnit__0.conflictingLoads       254088                       # Number of conflicting loads. (Count)
system.cpu0.MemDepUnit__0.conflictingStores       253194                       # Number of conflicting stores. (Count)
system.cpu0.MemDepUnit__1.insertedLoads             0                       # Number of loads inserted to the mem dependence unit. (Count)
system.cpu0.MemDepUnit__1.insertedStores            0                       # Number of stores inserted to the mem dependence unit. (Count)
system.cpu0.MemDepUnit__1.conflictingLoads            0                       # Number of conflicting loads. (Count)
system.cpu0.MemDepUnit__1.conflictingStores            0                       # Number of conflicting stores. (Count)
system.cpu0.MemDepUnit__2.insertedLoads             0                       # Number of loads inserted to the mem dependence unit. (Count)
system.cpu0.MemDepUnit__2.insertedStores            0                       # Number of stores inserted to the mem dependence unit. (Count)
system.cpu0.MemDepUnit__2.conflictingLoads            0                       # Number of conflicting loads. (Count)
system.cpu0.MemDepUnit__2.conflictingStores            0                       # Number of conflicting stores. (Count)
system.cpu0.MemDepUnit__3.insertedLoads             0                       # Number of loads inserted to the mem dependence unit. (Count)
system.cpu0.MemDepUnit__3.insertedStores            0                       # Number of stores inserted to the mem dependence unit. (Count)
system.cpu0.MemDepUnit__3.conflictingLoads            0                       # Number of conflicting loads. (Count)
system.cpu0.MemDepUnit__3.conflictingStores            0                       # Number of conflicting stores. (Count)
system.cpu0.branchPred.lookups                7439919                       # Number of BP lookups (Count)
system.cpu0.branchPred.condPredicted          7389151                       # Number of conditional branches predicted (Count)
system.cpu0.branchPred.condIncorrect             8895                       # Number of conditional branches incorrect (Count)
system.cpu0.branchPred.BTBLookups             4314533                       # Number of BTB lookups (Count)
system.cpu0.branchPred.BTBHits                4310783                       # Number of BTB hits (Count)
system.cpu0.branchPred.BTBHitRatio           0.999131                       # BTB Hit Ratio (Ratio)
system.cpu0.branchPred.RASUsed                  19104                       # Number of times the RAS was used to get a target. (Count)
system.cpu0.branchPred.RASIncorrect                 7                       # Number of incorrect RAS predictions. (Count)
system.cpu0.branchPred.indirectLookups           9344                       # Number of indirect predictor lookups. (Count)
system.cpu0.branchPred.indirectHits              5550                       # Number of indirect target hits. (Count)
system.cpu0.branchPred.indirectMisses            3794                       # Number of indirect misses. (Count)
system.cpu0.branchPred.indirectMispredicted          814                       # Number of mispredicted indirect branches. (Count)
system.cpu0.commit.commitSquashedInsts       42752477                       # The number of squashed insts skipped by commit (Count)
system.cpu0.commit.commitNonSpecStalls            796                       # The number of times commit has been forced to stall to communicate backwards (Count)
system.cpu0.commit.branchMispredicts             8677                       # The number of times a branch was mispredicted (Count)
system.cpu0.commit.numCommittedDist::samples    285672861                       # Number of insts commited each cycle (Count)
system.cpu0.commit.numCommittedDist::mean     0.241342                       # Number of insts commited each cycle (Count)
system.cpu0.commit.numCommittedDist::stdev     1.211525                       # Number of insts commited each cycle (Count)
system.cpu0.commit.numCommittedDist::underflows            0      0.00%      0.00% # Number of insts commited each cycle (Count)
system.cpu0.commit.numCommittedDist::0      269734333     94.42%     94.42% # Number of insts commited each cycle (Count)
system.cpu0.commit.numCommittedDist::1        4386755      1.54%     95.96% # Number of insts commited each cycle (Count)
system.cpu0.commit.numCommittedDist::2        1618808      0.57%     96.52% # Number of insts commited each cycle (Count)
system.cpu0.commit.numCommittedDist::3        1753455      0.61%     97.14% # Number of insts commited each cycle (Count)
system.cpu0.commit.numCommittedDist::4        2081722      0.73%     97.87% # Number of insts commited each cycle (Count)
system.cpu0.commit.numCommittedDist::5         235230      0.08%     97.95% # Number of insts commited each cycle (Count)
system.cpu0.commit.numCommittedDist::6          32606      0.01%     97.96% # Number of insts commited each cycle (Count)
system.cpu0.commit.numCommittedDist::7         278278      0.10%     98.06% # Number of insts commited each cycle (Count)
system.cpu0.commit.numCommittedDist::8        5551674      1.94%    100.00% # Number of insts commited each cycle (Count)
system.cpu0.commit.numCommittedDist::overflows            0      0.00%    100.00% # Number of insts commited each cycle (Count)
system.cpu0.commit.numCommittedDist::min_value            0                       # Number of insts commited each cycle (Count)
system.cpu0.commit.numCommittedDist::max_value            8                       # Number of insts commited each cycle (Count)
system.cpu0.commit.numCommittedDist::total    285672861                       # Number of insts commited each cycle (Count)
system.cpu0.commit.instsCommitted            37813028                       # Number of instructions committed (Count)
system.cpu0.commit.opsCommitted              68944748                       # Number of ops (including micro ops) committed (Count)
system.cpu0.commit.memRefs                   18178459                       # Number of memory references committed (Count)
system.cpu0.commit.loads                     12632492                       # Number of loads committed (Count)
system.cpu0.commit.amos                             0                       # Number of atomic instructions committed (Count)
system.cpu0.commit.membars                        372                       # Number of memory barriers committed (Count)
system.cpu0.commit.branches                   5349421                       # Number of branches committed (Count)
system.cpu0.commit.vectorInstructions               0                       # Number of committed Vector instructions. (Count)
system.cpu0.commit.floating                  38568006                       # Number of committed floating point instructions. (Count)
system.cpu0.commit.integer                   47377739                       # Number of committed integer instructions. (Count)
system.cpu0.commit.functionCalls                 7973                       # Number of function calls committed. (Count)
system.cpu0.commit.committedInstType_0::No_OpClass         6665      0.01%      0.01% # Class of committed instruction (Count)
system.cpu0.commit.committedInstType_0::IntAlu     33216375     48.18%     48.19% # Class of committed instruction (Count)
system.cpu0.commit.committedInstType_0::IntMult          256      0.00%     48.19% # Class of committed instruction (Count)
system.cpu0.commit.committedInstType_0::IntDiv         2804      0.00%     48.19% # Class of committed instruction (Count)
system.cpu0.commit.committedInstType_0::FloatAdd      4252884      6.17%     54.36% # Class of committed instruction (Count)
system.cpu0.commit.committedInstType_0::FloatCmp            0      0.00%     54.36% # Class of committed instruction (Count)
system.cpu0.commit.committedInstType_0::FloatCvt          416      0.00%     54.36% # Class of committed instruction (Count)
system.cpu0.commit.committedInstType_0::FloatMult            0      0.00%     54.36% # Class of committed instruction (Count)
system.cpu0.commit.committedInstType_0::FloatMultAcc            0      0.00%     54.36% # Class of committed instruction (Count)
system.cpu0.commit.committedInstType_0::FloatDiv            0      0.00%     54.36% # Class of committed instruction (Count)
system.cpu0.commit.committedInstType_0::FloatMisc            0      0.00%     54.36% # Class of committed instruction (Count)
system.cpu0.commit.committedInstType_0::FloatSqrt            0      0.00%     54.36% # Class of committed instruction (Count)
system.cpu0.commit.committedInstType_0::SimdAdd         2098      0.00%     54.36% # Class of committed instruction (Count)
system.cpu0.commit.committedInstType_0::SimdAddAcc            0      0.00%     54.36% # Class of committed instruction (Count)
system.cpu0.commit.committedInstType_0::SimdAlu        12520      0.02%     54.38% # Class of committed instruction (Count)
system.cpu0.commit.committedInstType_0::SimdCmp           66      0.00%     54.38% # Class of committed instruction (Count)
system.cpu0.commit.committedInstType_0::SimdCvt         4504      0.01%     54.39% # Class of committed instruction (Count)
system.cpu0.commit.committedInstType_0::SimdMisc         3427      0.00%     54.39% # Class of committed instruction (Count)
system.cpu0.commit.committedInstType_0::SimdMult            0      0.00%     54.39% # Class of committed instruction (Count)
system.cpu0.commit.committedInstType_0::SimdMultAcc            0      0.00%     54.39% # Class of committed instruction (Count)
system.cpu0.commit.committedInstType_0::SimdShift          727      0.00%     54.40% # Class of committed instruction (Count)
system.cpu0.commit.committedInstType_0::SimdShiftAcc            0      0.00%     54.40% # Class of committed instruction (Count)
system.cpu0.commit.committedInstType_0::SimdDiv            0      0.00%     54.40% # Class of committed instruction (Count)
system.cpu0.commit.committedInstType_0::SimdSqrt            0      0.00%     54.40% # Class of committed instruction (Count)
system.cpu0.commit.committedInstType_0::SimdFloatAdd      8254488     11.97%     66.37% # Class of committed instruction (Count)
system.cpu0.commit.committedInstType_0::SimdFloatAlu            0      0.00%     66.37% # Class of committed instruction (Count)
system.cpu0.commit.committedInstType_0::SimdFloatCmp           24      0.00%     66.37% # Class of committed instruction (Count)
system.cpu0.commit.committedInstType_0::SimdFloatCvt      3006745      4.36%     70.73% # Class of committed instruction (Count)
system.cpu0.commit.committedInstType_0::SimdFloatDiv           15      0.00%     70.73% # Class of committed instruction (Count)
system.cpu0.commit.committedInstType_0::SimdFloatMisc            0      0.00%     70.73% # Class of committed instruction (Count)
system.cpu0.commit.committedInstType_0::SimdFloatMult      2002275      2.90%     73.63% # Class of committed instruction (Count)
system.cpu0.commit.committedInstType_0::SimdFloatMultAcc            0      0.00%     73.63% # Class of committed instruction (Count)
system.cpu0.commit.committedInstType_0::SimdFloatSqrt            0      0.00%     73.63% # Class of committed instruction (Count)
system.cpu0.commit.committedInstType_0::SimdReduceAdd            0      0.00%     73.63% # Class of committed instruction (Count)
system.cpu0.commit.committedInstType_0::SimdReduceAlu            0      0.00%     73.63% # Class of committed instruction (Count)
system.cpu0.commit.committedInstType_0::SimdReduceCmp            0      0.00%     73.63% # Class of committed instruction (Count)
system.cpu0.commit.committedInstType_0::SimdFloatReduceAdd            0      0.00%     73.63% # Class of committed instruction (Count)
system.cpu0.commit.committedInstType_0::SimdFloatReduceCmp            0      0.00%     73.63% # Class of committed instruction (Count)
system.cpu0.commit.committedInstType_0::SimdAes            0      0.00%     73.63% # Class of committed instruction (Count)
system.cpu0.commit.committedInstType_0::SimdAesMix            0      0.00%     73.63% # Class of committed instruction (Count)
system.cpu0.commit.committedInstType_0::SimdSha1Hash            0      0.00%     73.63% # Class of committed instruction (Count)
system.cpu0.commit.committedInstType_0::SimdSha1Hash2            0      0.00%     73.63% # Class of committed instruction (Count)
system.cpu0.commit.committedInstType_0::SimdSha256Hash            0      0.00%     73.63% # Class of committed instruction (Count)
system.cpu0.commit.committedInstType_0::SimdSha256Hash2            0      0.00%     73.63% # Class of committed instruction (Count)
system.cpu0.commit.committedInstType_0::SimdShaSigma2            0      0.00%     73.63% # Class of committed instruction (Count)
system.cpu0.commit.committedInstType_0::SimdShaSigma3            0      0.00%     73.63% # Class of committed instruction (Count)
system.cpu0.commit.committedInstType_0::SimdPredAlu            0      0.00%     73.63% # Class of committed instruction (Count)
system.cpu0.commit.committedInstType_0::MemRead       364428      0.53%     74.16% # Class of committed instruction (Count)
system.cpu0.commit.committedInstType_0::MemWrite       791631      1.15%     75.31% # Class of committed instruction (Count)
system.cpu0.commit.committedInstType_0::FloatMemRead     12268064     17.79%     93.10% # Class of committed instruction (Count)
system.cpu0.commit.committedInstType_0::FloatMemWrite      4754336      6.90%    100.00% # Class of committed instruction (Count)
system.cpu0.commit.committedInstType_0::IprAccess            0      0.00%    100.00% # Class of committed instruction (Count)
system.cpu0.commit.committedInstType_0::InstPrefetch            0      0.00%    100.00% # Class of committed instruction (Count)
system.cpu0.commit.committedInstType_0::total     68944748                       # Class of committed instruction (Count)
system.cpu0.commit.commitEligibleSamples      5551674                       # number cycles where commit BW limit reached (Cycle)
system.cpu0.dcache.demandHits::cpu0.data     19805474                       # number of demand (read+write) hits (Count)
system.cpu0.dcache.demandHits::total         19805474                       # number of demand (read+write) hits (Count)
system.cpu0.dcache.overallHits::cpu0.data     22410203                       # number of overall hits (Count)
system.cpu0.dcache.overallHits::total        22410203                       # number of overall hits (Count)
system.cpu0.dcache.demandMisses::cpu0.data      7679020                       # number of demand (read+write) misses (Count)
system.cpu0.dcache.demandMisses::total        7679020                       # number of demand (read+write) misses (Count)
system.cpu0.dcache.overallMisses::cpu0.data      7824115                       # number of overall misses (Count)
system.cpu0.dcache.overallMisses::total       7824115                       # number of overall misses (Count)
system.cpu0.dcache.demandMissLatency::cpu0.data 288773416994                       # number of demand (read+write) miss ticks (Tick)
system.cpu0.dcache.demandMissLatency::total 288773416994                       # number of demand (read+write) miss ticks (Tick)
system.cpu0.dcache.overallMissLatency::cpu0.data 288773416994                       # number of overall miss ticks (Tick)
system.cpu0.dcache.overallMissLatency::total 288773416994                       # number of overall miss ticks (Tick)
system.cpu0.dcache.demandAccesses::cpu0.data     27484494                       # number of demand (read+write) accesses (Count)
system.cpu0.dcache.demandAccesses::total     27484494                       # number of demand (read+write) accesses (Count)
system.cpu0.dcache.overallAccesses::cpu0.data     30234318                       # number of overall (read+write) accesses (Count)
system.cpu0.dcache.overallAccesses::total     30234318                       # number of overall (read+write) accesses (Count)
system.cpu0.dcache.demandMissRate::cpu0.data     0.279395                       # miss rate for demand accesses (Ratio)
system.cpu0.dcache.demandMissRate::total     0.279395                       # miss rate for demand accesses (Ratio)
system.cpu0.dcache.overallMissRate::cpu0.data     0.258783                       # miss rate for overall accesses (Ratio)
system.cpu0.dcache.overallMissRate::total     0.258783                       # miss rate for overall accesses (Ratio)
system.cpu0.dcache.demandAvgMissLatency::cpu0.data 37605.503957                       # average overall miss latency in ticks ((Tick/Count))
system.cpu0.dcache.demandAvgMissLatency::total 37605.503957                       # average overall miss latency in ticks ((Tick/Count))
system.cpu0.dcache.overallAvgMissLatency::cpu0.data 36908.125327                       # average overall miss latency ((Tick/Count))
system.cpu0.dcache.overallAvgMissLatency::total 36908.125327                       # average overall miss latency ((Tick/Count))
system.cpu0.dcache.blockedCycles::no_mshrs      9943005                       # number of cycles access was blocked (Cycle)
system.cpu0.dcache.blockedCycles::no_targets         3079                       # number of cycles access was blocked (Cycle)
system.cpu0.dcache.blockedCauses::no_mshrs       381665                       # number of times access was blocked (Count)
system.cpu0.dcache.blockedCauses::no_targets           20                       # number of times access was blocked (Count)
system.cpu0.dcache.avgBlocked::no_mshrs     26.051655                       # average number of cycles each access was blocked ((Cycle/Count))
system.cpu0.dcache.avgBlocked::no_targets   153.950000                       # average number of cycles each access was blocked ((Cycle/Count))
system.cpu0.dcache.writebacks::writebacks       627262                       # number of writebacks (Count)
system.cpu0.dcache.writebacks::total           627262                       # number of writebacks (Count)
system.cpu0.dcache.demandMshrHits::cpu0.data      6048106                       # number of demand (read+write) MSHR hits (Count)
system.cpu0.dcache.demandMshrHits::total      6048106                       # number of demand (read+write) MSHR hits (Count)
system.cpu0.dcache.overallMshrHits::cpu0.data      6048106                       # number of overall MSHR hits (Count)
system.cpu0.dcache.overallMshrHits::total      6048106                       # number of overall MSHR hits (Count)
system.cpu0.dcache.demandMshrMisses::cpu0.data      1630914                       # number of demand (read+write) MSHR misses (Count)
system.cpu0.dcache.demandMshrMisses::total      1630914                       # number of demand (read+write) MSHR misses (Count)
system.cpu0.dcache.overallMshrMisses::cpu0.data      1755910                       # number of overall MSHR misses (Count)
system.cpu0.dcache.overallMshrMisses::total      1755910                       # number of overall MSHR misses (Count)
system.cpu0.dcache.demandMshrMissLatency::cpu0.data 143425683995                       # number of demand (read+write) MSHR miss ticks (Tick)
system.cpu0.dcache.demandMshrMissLatency::total 143425683995                       # number of demand (read+write) MSHR miss ticks (Tick)
system.cpu0.dcache.overallMshrMissLatency::cpu0.data 154266335745                       # number of overall MSHR miss ticks (Tick)
system.cpu0.dcache.overallMshrMissLatency::total 154266335745                       # number of overall MSHR miss ticks (Tick)
system.cpu0.dcache.demandMshrMissRate::cpu0.data     0.059339                       # mshr miss ratio for demand accesses (Ratio)
system.cpu0.dcache.demandMshrMissRate::total     0.059339                       # mshr miss ratio for demand accesses (Ratio)
system.cpu0.dcache.overallMshrMissRate::cpu0.data     0.058077                       # mshr miss ratio for overall accesses (Ratio)
system.cpu0.dcache.overallMshrMissRate::total     0.058077                       # mshr miss ratio for overall accesses (Ratio)
system.cpu0.dcache.demandAvgMshrMissLatency::cpu0.data 87941.904966                       # average overall mshr miss latency ((Tick/Count))
system.cpu0.dcache.demandAvgMshrMissLatency::total 87941.904966                       # average overall mshr miss latency ((Tick/Count))
system.cpu0.dcache.overallAvgMshrMissLatency::cpu0.data 87855.491309                       # average overall mshr miss latency ((Tick/Count))
system.cpu0.dcache.overallAvgMshrMissLatency::total 87855.491309                       # average overall mshr miss latency ((Tick/Count))
system.cpu0.dcache.replacements               1754712                       # number of replacements (Count)
system.cpu0.dcache.LockedRMWReadReq.hits::cpu0.data          143                       # number of LockedRMWReadReq hits (Count)
system.cpu0.dcache.LockedRMWReadReq.hits::total          143                       # number of LockedRMWReadReq hits (Count)
system.cpu0.dcache.LockedRMWReadReq.misses::cpu0.data           43                       # number of LockedRMWReadReq misses (Count)
system.cpu0.dcache.LockedRMWReadReq.misses::total           43                       # number of LockedRMWReadReq misses (Count)
system.cpu0.dcache.LockedRMWReadReq.missLatency::cpu0.data       646000                       # number of LockedRMWReadReq miss ticks (Tick)
system.cpu0.dcache.LockedRMWReadReq.missLatency::total       646000                       # number of LockedRMWReadReq miss ticks (Tick)
system.cpu0.dcache.LockedRMWReadReq.accesses::cpu0.data          186                       # number of LockedRMWReadReq accesses(hits+misses) (Count)
system.cpu0.dcache.LockedRMWReadReq.accesses::total          186                       # number of LockedRMWReadReq accesses(hits+misses) (Count)
system.cpu0.dcache.LockedRMWReadReq.missRate::cpu0.data     0.231183                       # miss rate for LockedRMWReadReq accesses (Ratio)
system.cpu0.dcache.LockedRMWReadReq.missRate::total     0.231183                       # miss rate for LockedRMWReadReq accesses (Ratio)
system.cpu0.dcache.LockedRMWReadReq.avgMissLatency::cpu0.data 15023.255814                       # average LockedRMWReadReq miss latency ((Tick/Count))
system.cpu0.dcache.LockedRMWReadReq.avgMissLatency::total 15023.255814                       # average LockedRMWReadReq miss latency ((Tick/Count))
system.cpu0.dcache.LockedRMWReadReq.mshrMisses::cpu0.data           43                       # number of LockedRMWReadReq MSHR misses (Count)
system.cpu0.dcache.LockedRMWReadReq.mshrMisses::total           43                       # number of LockedRMWReadReq MSHR misses (Count)
system.cpu0.dcache.LockedRMWReadReq.mshrMissLatency::cpu0.data      1680000                       # number of LockedRMWReadReq MSHR miss ticks (Tick)
system.cpu0.dcache.LockedRMWReadReq.mshrMissLatency::total      1680000                       # number of LockedRMWReadReq MSHR miss ticks (Tick)
system.cpu0.dcache.LockedRMWReadReq.mshrMissRate::cpu0.data     0.231183                       # mshr miss rate for LockedRMWReadReq accesses (Ratio)
system.cpu0.dcache.LockedRMWReadReq.mshrMissRate::total     0.231183                       # mshr miss rate for LockedRMWReadReq accesses (Ratio)
system.cpu0.dcache.LockedRMWReadReq.avgMshrMissLatency::cpu0.data 39069.767442                       # average LockedRMWReadReq mshr miss latency ((Tick/Count))
system.cpu0.dcache.LockedRMWReadReq.avgMshrMissLatency::total 39069.767442                       # average LockedRMWReadReq mshr miss latency ((Tick/Count))
system.cpu0.dcache.LockedRMWWriteReq.hits::cpu0.data          186                       # number of LockedRMWWriteReq hits (Count)
system.cpu0.dcache.LockedRMWWriteReq.hits::total          186                       # number of LockedRMWWriteReq hits (Count)
system.cpu0.dcache.LockedRMWWriteReq.accesses::cpu0.data          186                       # number of LockedRMWWriteReq accesses(hits+misses) (Count)
system.cpu0.dcache.LockedRMWWriteReq.accesses::total          186                       # number of LockedRMWWriteReq accesses(hits+misses) (Count)
system.cpu0.dcache.ReadReq.hits::cpu0.data     15354997                       # number of ReadReq hits (Count)
system.cpu0.dcache.ReadReq.hits::total       15354997                       # number of ReadReq hits (Count)
system.cpu0.dcache.ReadReq.misses::cpu0.data      7083679                       # number of ReadReq misses (Count)
system.cpu0.dcache.ReadReq.misses::total      7083679                       # number of ReadReq misses (Count)
system.cpu0.dcache.ReadReq.missLatency::cpu0.data 237965352250                       # number of ReadReq miss ticks (Tick)
system.cpu0.dcache.ReadReq.missLatency::total 237965352250                       # number of ReadReq miss ticks (Tick)
system.cpu0.dcache.ReadReq.accesses::cpu0.data     22438676                       # number of ReadReq accesses(hits+misses) (Count)
system.cpu0.dcache.ReadReq.accesses::total     22438676                       # number of ReadReq accesses(hits+misses) (Count)
system.cpu0.dcache.ReadReq.missRate::cpu0.data     0.315691                       # miss rate for ReadReq accesses (Ratio)
system.cpu0.dcache.ReadReq.missRate::total     0.315691                       # miss rate for ReadReq accesses (Ratio)
system.cpu0.dcache.ReadReq.avgMissLatency::cpu0.data 33593.469192                       # average ReadReq miss latency ((Tick/Count))
system.cpu0.dcache.ReadReq.avgMissLatency::total 33593.469192                       # average ReadReq miss latency ((Tick/Count))
system.cpu0.dcache.ReadReq.mshrHits::cpu0.data      6048097                       # number of ReadReq MSHR hits (Count)
system.cpu0.dcache.ReadReq.mshrHits::total      6048097                       # number of ReadReq MSHR hits (Count)
system.cpu0.dcache.ReadReq.mshrMisses::cpu0.data      1035582                       # number of ReadReq MSHR misses (Count)
system.cpu0.dcache.ReadReq.mshrMisses::total      1035582                       # number of ReadReq MSHR misses (Count)
system.cpu0.dcache.ReadReq.mshrMissLatency::cpu0.data  92915667750                       # number of ReadReq MSHR miss ticks (Tick)
system.cpu0.dcache.ReadReq.mshrMissLatency::total  92915667750                       # number of ReadReq MSHR miss ticks (Tick)
system.cpu0.dcache.ReadReq.mshrMissRate::cpu0.data     0.046152                       # mshr miss rate for ReadReq accesses (Ratio)
system.cpu0.dcache.ReadReq.mshrMissRate::total     0.046152                       # mshr miss rate for ReadReq accesses (Ratio)
system.cpu0.dcache.ReadReq.avgMshrMissLatency::cpu0.data 89723.139017                       # average ReadReq mshr miss latency ((Tick/Count))
system.cpu0.dcache.ReadReq.avgMshrMissLatency::total 89723.139017                       # average ReadReq mshr miss latency ((Tick/Count))
system.cpu0.dcache.SoftPFReq.hits::cpu0.data      2604729                       # number of SoftPFReq hits (Count)
system.cpu0.dcache.SoftPFReq.hits::total      2604729                       # number of SoftPFReq hits (Count)
system.cpu0.dcache.SoftPFReq.misses::cpu0.data       145095                       # number of SoftPFReq misses (Count)
system.cpu0.dcache.SoftPFReq.misses::total       145095                       # number of SoftPFReq misses (Count)
system.cpu0.dcache.SoftPFReq.accesses::cpu0.data      2749824                       # number of SoftPFReq accesses(hits+misses) (Count)
system.cpu0.dcache.SoftPFReq.accesses::total      2749824                       # number of SoftPFReq accesses(hits+misses) (Count)
system.cpu0.dcache.SoftPFReq.missRate::cpu0.data     0.052765                       # miss rate for SoftPFReq accesses (Ratio)
system.cpu0.dcache.SoftPFReq.missRate::total     0.052765                       # miss rate for SoftPFReq accesses (Ratio)
system.cpu0.dcache.SoftPFReq.mshrMisses::cpu0.data       124996                       # number of SoftPFReq MSHR misses (Count)
system.cpu0.dcache.SoftPFReq.mshrMisses::total       124996                       # number of SoftPFReq MSHR misses (Count)
system.cpu0.dcache.SoftPFReq.mshrMissLatency::cpu0.data  10840651750                       # number of SoftPFReq MSHR miss ticks (Tick)
system.cpu0.dcache.SoftPFReq.mshrMissLatency::total  10840651750                       # number of SoftPFReq MSHR miss ticks (Tick)
system.cpu0.dcache.SoftPFReq.mshrMissRate::cpu0.data     0.045456                       # mshr miss rate for SoftPFReq accesses (Ratio)
system.cpu0.dcache.SoftPFReq.mshrMissRate::total     0.045456                       # mshr miss rate for SoftPFReq accesses (Ratio)
system.cpu0.dcache.SoftPFReq.avgMshrMissLatency::cpu0.data 86727.989296                       # average SoftPFReq mshr miss latency ((Tick/Count))
system.cpu0.dcache.SoftPFReq.avgMshrMissLatency::total 86727.989296                       # average SoftPFReq mshr miss latency ((Tick/Count))
system.cpu0.dcache.WriteReq.hits::cpu0.data      4450477                       # number of WriteReq hits (Count)
system.cpu0.dcache.WriteReq.hits::total       4450477                       # number of WriteReq hits (Count)
system.cpu0.dcache.WriteReq.misses::cpu0.data       595341                       # number of WriteReq misses (Count)
system.cpu0.dcache.WriteReq.misses::total       595341                       # number of WriteReq misses (Count)
system.cpu0.dcache.WriteReq.missLatency::cpu0.data  50808064744                       # number of WriteReq miss ticks (Tick)
system.cpu0.dcache.WriteReq.missLatency::total  50808064744                       # number of WriteReq miss ticks (Tick)
system.cpu0.dcache.WriteReq.accesses::cpu0.data      5045818                       # number of WriteReq accesses(hits+misses) (Count)
system.cpu0.dcache.WriteReq.accesses::total      5045818                       # number of WriteReq accesses(hits+misses) (Count)
system.cpu0.dcache.WriteReq.missRate::cpu0.data     0.117987                       # miss rate for WriteReq accesses (Ratio)
system.cpu0.dcache.WriteReq.missRate::total     0.117987                       # miss rate for WriteReq accesses (Ratio)
system.cpu0.dcache.WriteReq.avgMissLatency::cpu0.data 85342.794708                       # average WriteReq miss latency ((Tick/Count))
system.cpu0.dcache.WriteReq.avgMissLatency::total 85342.794708                       # average WriteReq miss latency ((Tick/Count))
system.cpu0.dcache.WriteReq.mshrHits::cpu0.data            9                       # number of WriteReq MSHR hits (Count)
system.cpu0.dcache.WriteReq.mshrHits::total            9                       # number of WriteReq MSHR hits (Count)
system.cpu0.dcache.WriteReq.mshrMisses::cpu0.data       595332                       # number of WriteReq MSHR misses (Count)
system.cpu0.dcache.WriteReq.mshrMisses::total       595332                       # number of WriteReq MSHR misses (Count)
system.cpu0.dcache.WriteReq.mshrMissLatency::cpu0.data  50510016245                       # number of WriteReq MSHR miss ticks (Tick)
system.cpu0.dcache.WriteReq.mshrMissLatency::total  50510016245                       # number of WriteReq MSHR miss ticks (Tick)
system.cpu0.dcache.WriteReq.mshrMissRate::cpu0.data     0.117985                       # mshr miss rate for WriteReq accesses (Ratio)
system.cpu0.dcache.WriteReq.mshrMissRate::total     0.117985                       # mshr miss rate for WriteReq accesses (Ratio)
system.cpu0.dcache.WriteReq.avgMshrMissLatency::cpu0.data 84843.442390                       # average WriteReq mshr miss latency ((Tick/Count))
system.cpu0.dcache.WriteReq.avgMshrMissLatency::total 84843.442390                       # average WriteReq mshr miss latency ((Tick/Count))
system.cpu0.dcache.power_state.pwrStateResidencyTicks::UNDEFINED  72943279750                       # Cumulative time (in ticks) in various power states (Tick)
system.cpu0.dcache.tags.tagsInUse         1023.161460                       # Average ticks per tags in use ((Tick/Count))
system.cpu0.dcache.tags.totalRefs            24166488                       # Total number of references to valid blocks. (Count)
system.cpu0.dcache.tags.sampledRefs           1755874                       # Sample count of references to valid blocks. (Count)
system.cpu0.dcache.tags.avgRefs             13.763224                       # Average number of references to valid blocks. ((Count/Count))
system.cpu0.dcache.tags.warmupTick             168250                       # The tick when the warmup percentage was hit. (Tick)
system.cpu0.dcache.tags.occupancies::cpu0.data  1023.161460                       # Average occupied blocks per tick, per requestor ((Count/Tick))
system.cpu0.dcache.tags.avgOccs::cpu0.data     0.999181                       # Average percentage of cache occupancy ((Ratio/Tick))
system.cpu0.dcache.tags.avgOccs::total       0.999181                       # Average percentage of cache occupancy ((Ratio/Tick))
system.cpu0.dcache.tags.occupanciesTaskId::1024         1024                       # Occupied blocks per task id (Count)
system.cpu0.dcache.tags.ageTaskId_1024::0          130                       # Occupied blocks per task id, per block age (Count)
system.cpu0.dcache.tags.ageTaskId_1024::1          893                       # Occupied blocks per task id, per block age (Count)
system.cpu0.dcache.tags.ageTaskId_1024::4            1                       # Occupied blocks per task id, per block age (Count)
system.cpu0.dcache.tags.ratioOccsTaskId::1024            1                       # Ratio of occupied blocks and all blocks, per task id (Ratio)
system.cpu0.dcache.tags.tagAccesses          62225254                       # Number of tag accesses (Count)
system.cpu0.dcache.tags.dataAccesses         62225254                       # Number of data accesses (Count)
system.cpu0.dcache.tags.power_state.pwrStateResidencyTicks::UNDEFINED  72943279750                       # Cumulative time (in ticks) in various power states (Tick)
system.cpu0.decode.idleCycles                 3830127                       # Number of cycles decode is idle (Cycle)
system.cpu0.decode.blockedCycles            270895470                       # Number of cycles decode is blocked (Cycle)
system.cpu0.decode.runCycles                 12359843                       # Number of cycles decode is running (Cycle)
system.cpu0.decode.unblockCycles              3773880                       # Number of cycles decode is unblocking (Cycle)
system.cpu0.decode.squashCycles                511516                       # Number of cycles decode is squashing (Cycle)
system.cpu0.decode.branchResolved             3807587                       # Number of times decode resolved a branch (Count)
system.cpu0.decode.branchMispred                 1358                       # Number of times decode detected a branch misprediction (Count)
system.cpu0.decode.decodedInsts             122655107                       # Number of instructions handled by decode (Count)
system.cpu0.decode.squashedInsts                 6512                       # Number of squashed instructions handled by decode (Count)
system.cpu0.dtb_walker_cache.blockedCycles::no_mshrs            0                       # number of cycles access was blocked (Cycle)
system.cpu0.dtb_walker_cache.blockedCycles::no_targets            0                       # number of cycles access was blocked (Cycle)
system.cpu0.dtb_walker_cache.blockedCauses::no_mshrs            0                       # number of times access was blocked (Count)
system.cpu0.dtb_walker_cache.blockedCauses::no_targets            0                       # number of times access was blocked (Count)
system.cpu0.dtb_walker_cache.avgBlocked::no_mshrs          nan                       # average number of cycles each access was blocked ((Cycle/Count))
system.cpu0.dtb_walker_cache.avgBlocked::no_targets          nan                       # average number of cycles each access was blocked ((Cycle/Count))
system.cpu0.dtb_walker_cache.replacements            0                       # number of replacements (Count)
system.cpu0.dtb_walker_cache.power_state.pwrStateResidencyTicks::UNDEFINED  72943279750                       # Cumulative time (in ticks) in various power states (Tick)
system.cpu0.dtb_walker_cache.tags.tagsInUse            0                       # Average ticks per tags in use ((Tick/Count))
system.cpu0.dtb_walker_cache.tags.totalRefs            0                       # Total number of references to valid blocks. (Count)
system.cpu0.dtb_walker_cache.tags.sampledRefs            0                       # Sample count of references to valid blocks. (Count)
system.cpu0.dtb_walker_cache.tags.avgRefs          nan                       # Average number of references to valid blocks. ((Count/Count))
system.cpu0.dtb_walker_cache.tags.warmupTick            0                       # The tick when the warmup percentage was hit. (Tick)
system.cpu0.dtb_walker_cache.tags.tagAccesses            0                       # Number of tag accesses (Count)
system.cpu0.dtb_walker_cache.tags.dataAccesses            0                       # Number of data accesses (Count)
system.cpu0.dtb_walker_cache.tags.power_state.pwrStateResidencyTicks::UNDEFINED  72943279750                       # Cumulative time (in ticks) in various power states (Tick)
system.cpu0.fetch.icacheStallCycles           8746405                       # Number of cycles fetch is stalled on an Icache miss (Cycle)
system.cpu0.fetch.insts                      67470087                       # Number of instructions fetch has processed (Count)
system.cpu0.fetch.branches                    7439919                       # Number of branches that fetch encountered (Count)
system.cpu0.fetch.predictedBranches           4335437                       # Number of branches that fetch has predicted taken (Count)
system.cpu0.fetch.cycles                    282102476                       # Number of cycles fetch has run and was not squashing or blocked (Cycle)
system.cpu0.fetch.squashCycles                1025708                       # Number of cycles fetch has spent squashing (Cycle)
system.cpu0.fetch.miscStallCycles                1184                       # Number of cycles fetch has spent waiting on interrupts, or bad addresses, or out of MSHRs (Cycle)
system.cpu0.fetch.pendingTrapStallCycles         7837                       # Number of stall cycles due to pending traps (Cycle)
system.cpu0.fetch.icacheWaitRetryStallCycles           80                       # Number of stall cycles due to full MSHR (Cycle)
system.cpu0.fetch.cacheLines                  8506662                       # Number of cache lines fetched (Count)
system.cpu0.fetch.icacheSquashes                 3369                       # Number of outstanding Icache misses that were squashed (Count)
system.cpu0.fetch.nisnDist::samples         291370836                       # Number of instructions fetched each cycle (Total) (Count)
system.cpu0.fetch.nisnDist::mean             0.489064                       # Number of instructions fetched each cycle (Total) (Count)
system.cpu0.fetch.nisnDist::stdev            1.812581                       # Number of instructions fetched each cycle (Total) (Count)
system.cpu0.fetch.nisnDist::underflows              0      0.00%      0.00% # Number of instructions fetched each cycle (Total) (Count)
system.cpu0.fetch.nisnDist::0               269528684     92.50%     92.50% # Number of instructions fetched each cycle (Total) (Count)
system.cpu0.fetch.nisnDist::1                  502904      0.17%     92.68% # Number of instructions fetched each cycle (Total) (Count)
system.cpu0.fetch.nisnDist::2                 1393017      0.48%     93.15% # Number of instructions fetched each cycle (Total) (Count)
system.cpu0.fetch.nisnDist::3                 1435543      0.49%     93.65% # Number of instructions fetched each cycle (Total) (Count)
system.cpu0.fetch.nisnDist::4                  975511      0.33%     93.98% # Number of instructions fetched each cycle (Total) (Count)
system.cpu0.fetch.nisnDist::5                  641951      0.22%     94.20% # Number of instructions fetched each cycle (Total) (Count)
system.cpu0.fetch.nisnDist::6                 2735826      0.94%     95.14% # Number of instructions fetched each cycle (Total) (Count)
system.cpu0.fetch.nisnDist::7                 1882624      0.65%     95.79% # Number of instructions fetched each cycle (Total) (Count)
system.cpu0.fetch.nisnDist::8                12274776      4.21%    100.00% # Number of instructions fetched each cycle (Total) (Count)
system.cpu0.fetch.nisnDist::overflows               0      0.00%    100.00% # Number of instructions fetched each cycle (Total) (Count)
system.cpu0.fetch.nisnDist::min_value               0                       # Number of instructions fetched each cycle (Total) (Count)
system.cpu0.fetch.nisnDist::max_value               8                       # Number of instructions fetched each cycle (Total) (Count)
system.cpu0.fetch.nisnDist::total           291370836                       # Number of instructions fetched each cycle (Total) (Count)
system.cpu0.fetch.branchRate                 0.025499                       # Number of branch fetches per cycle (Ratio)
system.cpu0.fetch.rate                       0.231242                       # Number of inst fetches per cycle ((Count/Cycle))
system.cpu0.icache.demandHits::cpu0.inst      8503188                       # number of demand (read+write) hits (Count)
system.cpu0.icache.demandHits::total          8503188                       # number of demand (read+write) hits (Count)
system.cpu0.icache.overallHits::cpu0.inst      8503188                       # number of overall hits (Count)
system.cpu0.icache.overallHits::total         8503188                       # number of overall hits (Count)
system.cpu0.icache.demandMisses::cpu0.inst         3474                       # number of demand (read+write) misses (Count)
system.cpu0.icache.demandMisses::total           3474                       # number of demand (read+write) misses (Count)
system.cpu0.icache.overallMisses::cpu0.inst         3474                       # number of overall misses (Count)
system.cpu0.icache.overallMisses::total          3474                       # number of overall misses (Count)
system.cpu0.icache.demandMissLatency::cpu0.inst    231703999                       # number of demand (read+write) miss ticks (Tick)
system.cpu0.icache.demandMissLatency::total    231703999                       # number of demand (read+write) miss ticks (Tick)
system.cpu0.icache.overallMissLatency::cpu0.inst    231703999                       # number of overall miss ticks (Tick)
system.cpu0.icache.overallMissLatency::total    231703999                       # number of overall miss ticks (Tick)
system.cpu0.icache.demandAccesses::cpu0.inst      8506662                       # number of demand (read+write) accesses (Count)
system.cpu0.icache.demandAccesses::total      8506662                       # number of demand (read+write) accesses (Count)
system.cpu0.icache.overallAccesses::cpu0.inst      8506662                       # number of overall (read+write) accesses (Count)
system.cpu0.icache.overallAccesses::total      8506662                       # number of overall (read+write) accesses (Count)
system.cpu0.icache.demandMissRate::cpu0.inst     0.000408                       # miss rate for demand accesses (Ratio)
system.cpu0.icache.demandMissRate::total     0.000408                       # miss rate for demand accesses (Ratio)
system.cpu0.icache.overallMissRate::cpu0.inst     0.000408                       # miss rate for overall accesses (Ratio)
system.cpu0.icache.overallMissRate::total     0.000408                       # miss rate for overall accesses (Ratio)
system.cpu0.icache.demandAvgMissLatency::cpu0.inst 66696.603051                       # average overall miss latency in ticks ((Tick/Count))
system.cpu0.icache.demandAvgMissLatency::total 66696.603051                       # average overall miss latency in ticks ((Tick/Count))
system.cpu0.icache.overallAvgMissLatency::cpu0.inst 66696.603051                       # average overall miss latency ((Tick/Count))
system.cpu0.icache.overallAvgMissLatency::total 66696.603051                       # average overall miss latency ((Tick/Count))
system.cpu0.icache.blockedCycles::no_mshrs          891                       # number of cycles access was blocked (Cycle)
system.cpu0.icache.blockedCycles::no_targets            0                       # number of cycles access was blocked (Cycle)
system.cpu0.icache.blockedCauses::no_mshrs           17                       # number of times access was blocked (Count)
system.cpu0.icache.blockedCauses::no_targets            0                       # number of times access was blocked (Count)
system.cpu0.icache.avgBlocked::no_mshrs     52.411765                       # average number of cycles each access was blocked ((Cycle/Count))
system.cpu0.icache.avgBlocked::no_targets          nan                       # average number of cycles each access was blocked ((Cycle/Count))
system.cpu0.icache.writebacks::writebacks         2205                       # number of writebacks (Count)
system.cpu0.icache.writebacks::total             2205                       # number of writebacks (Count)
system.cpu0.icache.demandMshrHits::cpu0.inst          750                       # number of demand (read+write) MSHR hits (Count)
system.cpu0.icache.demandMshrHits::total          750                       # number of demand (read+write) MSHR hits (Count)
system.cpu0.icache.overallMshrHits::cpu0.inst          750                       # number of overall MSHR hits (Count)
system.cpu0.icache.overallMshrHits::total          750                       # number of overall MSHR hits (Count)
system.cpu0.icache.demandMshrMisses::cpu0.inst         2724                       # number of demand (read+write) MSHR misses (Count)
system.cpu0.icache.demandMshrMisses::total         2724                       # number of demand (read+write) MSHR misses (Count)
system.cpu0.icache.overallMshrMisses::cpu0.inst         2724                       # number of overall MSHR misses (Count)
system.cpu0.icache.overallMshrMisses::total         2724                       # number of overall MSHR misses (Count)
system.cpu0.icache.demandMshrMissLatency::cpu0.inst    181503250                       # number of demand (read+write) MSHR miss ticks (Tick)
system.cpu0.icache.demandMshrMissLatency::total    181503250                       # number of demand (read+write) MSHR miss ticks (Tick)
system.cpu0.icache.overallMshrMissLatency::cpu0.inst    181503250                       # number of overall MSHR miss ticks (Tick)
system.cpu0.icache.overallMshrMissLatency::total    181503250                       # number of overall MSHR miss ticks (Tick)
system.cpu0.icache.demandMshrMissRate::cpu0.inst     0.000320                       # mshr miss ratio for demand accesses (Ratio)
system.cpu0.icache.demandMshrMissRate::total     0.000320                       # mshr miss ratio for demand accesses (Ratio)
system.cpu0.icache.overallMshrMissRate::cpu0.inst     0.000320                       # mshr miss ratio for overall accesses (Ratio)
system.cpu0.icache.overallMshrMissRate::total     0.000320                       # mshr miss ratio for overall accesses (Ratio)
system.cpu0.icache.demandAvgMshrMissLatency::cpu0.inst 66631.149046                       # average overall mshr miss latency ((Tick/Count))
system.cpu0.icache.demandAvgMshrMissLatency::total 66631.149046                       # average overall mshr miss latency ((Tick/Count))
system.cpu0.icache.overallAvgMshrMissLatency::cpu0.inst 66631.149046                       # average overall mshr miss latency ((Tick/Count))
system.cpu0.icache.overallAvgMshrMissLatency::total 66631.149046                       # average overall mshr miss latency ((Tick/Count))
system.cpu0.icache.replacements                  2205                       # number of replacements (Count)
system.cpu0.icache.ReadReq.hits::cpu0.inst      8503188                       # number of ReadReq hits (Count)
system.cpu0.icache.ReadReq.hits::total        8503188                       # number of ReadReq hits (Count)
system.cpu0.icache.ReadReq.misses::cpu0.inst         3474                       # number of ReadReq misses (Count)
system.cpu0.icache.ReadReq.misses::total         3474                       # number of ReadReq misses (Count)
system.cpu0.icache.ReadReq.missLatency::cpu0.inst    231703999                       # number of ReadReq miss ticks (Tick)
system.cpu0.icache.ReadReq.missLatency::total    231703999                       # number of ReadReq miss ticks (Tick)
system.cpu0.icache.ReadReq.accesses::cpu0.inst      8506662                       # number of ReadReq accesses(hits+misses) (Count)
system.cpu0.icache.ReadReq.accesses::total      8506662                       # number of ReadReq accesses(hits+misses) (Count)
system.cpu0.icache.ReadReq.missRate::cpu0.inst     0.000408                       # miss rate for ReadReq accesses (Ratio)
system.cpu0.icache.ReadReq.missRate::total     0.000408                       # miss rate for ReadReq accesses (Ratio)
system.cpu0.icache.ReadReq.avgMissLatency::cpu0.inst 66696.603051                       # average ReadReq miss latency ((Tick/Count))
system.cpu0.icache.ReadReq.avgMissLatency::total 66696.603051                       # average ReadReq miss latency ((Tick/Count))
system.cpu0.icache.ReadReq.mshrHits::cpu0.inst          750                       # number of ReadReq MSHR hits (Count)
system.cpu0.icache.ReadReq.mshrHits::total          750                       # number of ReadReq MSHR hits (Count)
system.cpu0.icache.ReadReq.mshrMisses::cpu0.inst         2724                       # number of ReadReq MSHR misses (Count)
system.cpu0.icache.ReadReq.mshrMisses::total         2724                       # number of ReadReq MSHR misses (Count)
system.cpu0.icache.ReadReq.mshrMissLatency::cpu0.inst    181503250                       # number of ReadReq MSHR miss ticks (Tick)
system.cpu0.icache.ReadReq.mshrMissLatency::total    181503250                       # number of ReadReq MSHR miss ticks (Tick)
system.cpu0.icache.ReadReq.mshrMissRate::cpu0.inst     0.000320                       # mshr miss rate for ReadReq accesses (Ratio)
system.cpu0.icache.ReadReq.mshrMissRate::total     0.000320                       # mshr miss rate for ReadReq accesses (Ratio)
system.cpu0.icache.ReadReq.avgMshrMissLatency::cpu0.inst 66631.149046                       # average ReadReq mshr miss latency ((Tick/Count))
system.cpu0.icache.ReadReq.avgMshrMissLatency::total 66631.149046                       # average ReadReq mshr miss latency ((Tick/Count))
system.cpu0.icache.power_state.pwrStateResidencyTicks::UNDEFINED  72943279750                       # Cumulative time (in ticks) in various power states (Tick)
system.cpu0.icache.tags.tagsInUse          509.982160                       # Average ticks per tags in use ((Tick/Count))
system.cpu0.icache.tags.totalRefs             8505911                       # Total number of references to valid blocks. (Count)
system.cpu0.icache.tags.sampledRefs              2723                       # Sample count of references to valid blocks. (Count)
system.cpu0.icache.tags.avgRefs           3123.727874                       # Average number of references to valid blocks. ((Count/Count))
system.cpu0.icache.tags.warmupTick              85250                       # The tick when the warmup percentage was hit. (Tick)
system.cpu0.icache.tags.occupancies::cpu0.inst   509.982160                       # Average occupied blocks per tick, per requestor ((Count/Tick))
system.cpu0.icache.tags.avgOccs::cpu0.inst     0.996059                       # Average percentage of cache occupancy ((Ratio/Tick))
system.cpu0.icache.tags.avgOccs::total       0.996059                       # Average percentage of cache occupancy ((Ratio/Tick))
system.cpu0.icache.tags.occupanciesTaskId::1024          512                       # Occupied blocks per task id (Count)
system.cpu0.icache.tags.ageTaskId_1024::0          109                       # Occupied blocks per task id, per block age (Count)
system.cpu0.icache.tags.ageTaskId_1024::1           71                       # Occupied blocks per task id, per block age (Count)
system.cpu0.icache.tags.ageTaskId_1024::4          332                       # Occupied blocks per task id, per block age (Count)
system.cpu0.icache.tags.ratioOccsTaskId::1024            1                       # Ratio of occupied blocks and all blocks, per task id (Ratio)
system.cpu0.icache.tags.tagAccesses          17016047                       # Number of tag accesses (Count)
system.cpu0.icache.tags.dataAccesses         17016047                       # Number of data accesses (Count)
system.cpu0.icache.tags.power_state.pwrStateResidencyTicks::UNDEFINED  72943279750                       # Cumulative time (in ticks) in various power states (Tick)
system.cpu0.iew.idleCycles                          0                       # Number of cycles IEW is idle (Cycle)
system.cpu0.iew.squashCycles                   511516                       # Number of cycles IEW is squashing (Cycle)
system.cpu0.iew.blockCycles                  40950769                       # Number of cycles IEW is blocking (Cycle)
system.cpu0.iew.unblockCycles                22212134                       # Number of cycles IEW is unblocking (Cycle)
system.cpu0.iew.dispatchedInsts             117297893                       # Number of instructions dispatched to IQ (Count)
system.cpu0.iew.dispSquashedInsts                1020                       # Number of squashed instructions skipped by dispatch (Count)
system.cpu0.iew.dispLoadInsts                25224656                       # Number of dispatched load instructions (Count)
system.cpu0.iew.dispStoreInsts               21567793                       # Number of dispatched store instructions (Count)
system.cpu0.iew.dispNonSpecInsts                  549                       # Number of dispatched non-speculative instructions (Count)
system.cpu0.iew.iqFullEvents                     3151                       # Number of times the IQ has become full, causing a stall (Count)
system.cpu0.iew.lsqFullEvents                22181007                       # Number of times the LSQ has become full, causing a stall (Count)
system.cpu0.iew.memOrderViolationEvents           356                       # Number of memory order violations (Count)
system.cpu0.iew.predictedTakenIncorrect          2727                       # Number of branches that were predicted taken incorrectly (Count)
system.cpu0.iew.predictedNotTakenIncorrect         7450                       # Number of branches that were predicted not taken incorrectly (Count)
system.cpu0.iew.branchMispredicts               10177                       # Number of branch mispredicts detected at execute (Count)
system.cpu0.iew.instsToCommit               117138718                       # Cumulative count of insts sent to commit (Count)
[...]
system.mem_ctrls3.dram.pageHitRate              59.27                       # Row buffer hit rate, read and write combined (Ratio)
system.mem_ctrls3.dram.power_state.pwrStateResidencyTicks::UNDEFINED  72943279750                       # Cumulative time (in ticks) in various power states (Tick)
system.mem_ctrls3.dram.rank0.actEnergy              0                       # Energy for activate commands per rank (pJ) (Joule)
system.mem_ctrls3.dram.rank0.preEnergy              0                       # Energy for precharge commands per rank (pJ) (Joule)
system.mem_ctrls3.dram.rank0.readEnergy             0                       # Energy for read commands per rank (pJ) (Joule)
system.mem_ctrls3.dram.rank0.writeEnergy            0                       # Energy for write commands per rank (pJ) (Joule)
system.mem_ctrls3.dram.rank0.refreshEnergy            0                       # Energy for refresh commands per rank (pJ) (Joule)
system.mem_ctrls3.dram.rank0.actBackEnergy            0                       # Energy for active background per rank (pJ) (Joule)
system.mem_ctrls3.dram.rank0.preBackEnergy            0                       # Energy for precharge background per rank (pJ) (Joule)
system.mem_ctrls3.dram.rank0.actPowerDownEnergy            0                       # Energy for active power-down per rank (pJ) (Joule)
system.mem_ctrls3.dram.rank0.prePowerDownEnergy            0                       # Energy for precharge power-down per rank (pJ) (Joule)
system.mem_ctrls3.dram.rank0.selfRefreshEnergy            0                       # Energy for self refresh per rank (pJ) (Joule)
system.mem_ctrls3.dram.rank0.totalEnergy            0                       # Total energy per rank (pJ) (Joule)
system.mem_ctrls3.dram.rank0.averagePower            0                       # Core power per rank (mW) (Watt)
system.mem_ctrls3.dram.rank0.totalIdleTime            0                       # Total Idle time Per DRAM Rank (Tick)
system.mem_ctrls3.dram.rank0.pwrStateTime::IDLE  27041001457                       # Time in different power states (Tick)
system.mem_ctrls3.dram.rank0.pwrStateTime::REF   4129400000                       # Time in different power states (Tick)
system.mem_ctrls3.dram.rank0.pwrStateTime::SREF            0                       # Time in different power states (Tick)
system.mem_ctrls3.dram.rank0.pwrStateTime::PRE_PDN            0                       # Time in different power states (Tick)
system.mem_ctrls3.dram.rank0.pwrStateTime::ACT  41772878293                       # Time in different power states (Tick)
system.mem_ctrls3.dram.rank0.pwrStateTime::ACT_PDN            0                       # Time in different power states (Tick)
system.mem_ctrls3.power_state.pwrStateResidencyTicks::UNDEFINED  72943279750                       # Cumulative time (in ticks) in various power states (Tick)
system.membus.transDist::ReadResp             3505319                       # Transaction distribution (Count)
system.membus.transDist::WritebackDirty       2501520                       # Transaction distribution (Count)
system.membus.transDist::CleanEvict           3342200                       # Transaction distribution (Count)
system.membus.transDist::UpgradeReq               102                       # Transaction distribution (Count)
system.membus.transDist::ReadExReq            2376422                       # Transaction distribution (Count)
system.membus.transDist::ReadExResp           2376422                       # Transaction distribution (Count)
system.membus.transDist::ReadSharedReq        3505319                       # Transaction distribution (Count)
system.membus.pktCount_system.l2.mem_side_port::system.mem_ctrls0.port      4402109                       # Packet count per connected requestor and responder (Count)
system.membus.pktCount_system.l2.mem_side_port::system.mem_ctrls1.port      4401408                       # Packet count per connected requestor and responder (Count)
system.membus.pktCount_system.l2.mem_side_port::system.mem_ctrls2.port      4401997                       # Packet count per connected requestor and responder (Count)
system.membus.pktCount_system.l2.mem_side_port::system.mem_ctrls3.port      4401790                       # Packet count per connected requestor and responder (Count)
system.membus.pktCount_system.l2.mem_side_port::total     17607304                       # Packet count per connected requestor and responder (Count)
system.membus.pktCount::total                17607304                       # Packet count per connected requestor and responder (Count)
system.membus.pktSize_system.l2.mem_side_port::system.mem_ctrls0.port    134142976                       # Cumulative packet size per connected requestor and responder (Byte)
system.membus.pktSize_system.l2.mem_side_port::system.mem_ctrls1.port    134117056                       # Cumulative packet size per connected requestor and responder (Byte)
system.membus.pktSize_system.l2.mem_side_port::system.mem_ctrls2.port    134139712                       # Cumulative packet size per connected requestor and responder (Byte)
system.membus.pktSize_system.l2.mem_side_port::system.mem_ctrls3.port    134128960                       # Cumulative packet size per connected requestor and responder (Byte)
system.membus.pktSize_system.l2.mem_side_port::total    536528704                       # Cumulative packet size per connected requestor and responder (Byte)
system.membus.pktSize::total                536528704                       # Cumulative packet size per connected requestor and responder (Byte)
system.membus.snoops                              101                       # Total snoops (Count)
system.membus.snoopTraffic                          0                       # Total snoop traffic (Byte)
system.membus.snoopFanout::samples            5881843                       # Request fanout histogram (Count)
system.membus.snoopFanout::mean                     0                       # Request fanout histogram (Count)
system.membus.snoopFanout::stdev                    0                       # Request fanout histogram (Count)
system.membus.snoopFanout::underflows               0      0.00%      0.00% # Request fanout histogram (Count)
system.membus.snoopFanout::0                  5881843    100.00%    100.00% # Request fanout histogram (Count)
system.membus.snoopFanout::1                        0      0.00%    100.00% # Request fanout histogram (Count)
system.membus.snoopFanout::overflows                0      0.00%    100.00% # Request fanout histogram (Count)
system.membus.snoopFanout::min_value                0                       # Request fanout histogram (Count)
system.membus.snoopFanout::max_value                0                       # Request fanout histogram (Count)
system.membus.snoopFanout::total              5881843                       # Request fanout histogram (Count)
system.membus.power_state.pwrStateResidencyTicks::UNDEFINED  72943279750                       # Cumulative time (in ticks) in various power states (Tick)
system.membus.reqLayer10.occupancy         5894147229                       # Layer occupancy (ticks) (Tick)
system.membus.reqLayer10.utilization              0.1                       # Layer utilization (Ratio)
system.membus.reqLayer11.occupancy         5892383034                       # Layer occupancy (ticks) (Tick)
system.membus.reqLayer11.utilization              0.1                       # Layer utilization (Ratio)
system.membus.reqLayer8.occupancy          5893669860                       # Layer occupancy (ticks) (Tick)
system.membus.reqLayer8.utilization               0.1                       # Layer utilization (Ratio)
system.membus.reqLayer9.occupancy          5892787554                       # Layer occupancy (ticks) (Tick)
system.membus.reqLayer9.utilization               0.1                       # Layer utilization (Ratio)
system.membus.respLayer1.occupancy        29751336992                       # Layer occupancy (ticks) (Tick)
system.membus.respLayer1.utilization              0.4                       # Layer utilization (Ratio)
system.membus.snoop_filter.totRequests       11725563                       # Total number of requests made to the snoop filter. (Count)
system.membus.snoop_filter.hitSingleRequests      5846497                       # Number of requests hitting in the snoop filter with a single holder of the requested data. (Count)
system.membus.snoop_filter.hitMultiRequests            0                       # Number of requests hitting in the snoop filter with multiple (>1) holders of the requested data. (Count)
system.membus.snoop_filter.totSnoops                0                       # Total number of snoops made to the snoop filter. (Count)
system.membus.snoop_filter.hitSingleSnoops            0                       # Number of snoops hitting in the snoop filter with a single holder of the requested data. (Count)
system.membus.snoop_filter.hitMultiSnoops            0                       # Number of snoops hitting in the snoop filter with multiple (>1) holders of the requested data. (Count)
system.tol2bus.transDist::ReadResp            3508494                       # Transaction distribution (Count)
system.tol2bus.transDist::WritebackDirty      5003598                       # Transaction distribution (Count)
system.tol2bus.transDist::WritebackClean         2214                       # Transaction distribution (Count)
system.tol2bus.transDist::CleanEvict          6723320                       # Transaction distribution (Count)
system.tol2bus.transDist::UpgradeReq              179                       # Transaction distribution (Count)
system.tol2bus.transDist::UpgradeResp             179                       # Transaction distribution (Count)
system.tol2bus.transDist::ReadExReq           2376816                       # Transaction distribution (Count)
system.tol2bus.transDist::ReadExResp          2376816                       # Transaction distribution (Count)
system.tol2bus.transDist::ReadCleanReq           3031                       # Transaction distribution (Count)
system.tol2bus.transDist::ReadSharedReq       3505464                       # Transaction distribution (Count)
system.tol2bus.pktCount_system.cpu0.icache.mem_side_port::system.l2.cpu_side_port         7648                       # Packet count per connected requestor and responder (Count)
system.tol2bus.pktCount_system.cpu0.dcache.mem_side_port::system.l2.cpu_side_port      5266068                       # Packet count per connected requestor and responder (Count)
system.tol2bus.pktCount_system.cpu1.icache.mem_side_port::system.l2.cpu_side_port          290                       # Packet count per connected requestor and responder (Count)
system.tol2bus.pktCount_system.cpu1.dcache.mem_side_port::system.l2.cpu_side_port      4125298                       # Packet count per connected requestor and responder (Count)
system.tol2bus.pktCount_system.cpu2.icache.mem_side_port::system.l2.cpu_side_port          159                       # Packet count per connected requestor and responder (Count)
system.tol2bus.pktCount_system.cpu2.dcache.mem_side_port::system.l2.cpu_side_port      4124942                       # Packet count per connected requestor and responder (Count)
system.tol2bus.pktCount_system.cpu3.icache.mem_side_port::system.l2.cpu_side_port          159                       # Packet count per connected requestor and responder (Count)
system.tol2bus.pktCount_system.cpu3.dcache.mem_side_port::system.l2.cpu_side_port      4124981                       # Packet count per connected requestor and responder (Count)
system.tol2bus.pktCount::total               17649545                       # Packet count per connected requestor and responder (Count)
system.tol2bus.pktSize_system.cpu0.icache.mem_side_port::system.l2.cpu_side_port       315136                       # Cumulative packet size per connected requestor and responder (Byte)
system.tol2bus.pktSize_system.cpu0.dcache.mem_side_port::system.l2.cpu_side_port    152487488                       # Cumulative packet size per connected requestor and responder (Byte)
system.tol2bus.pktSize_system.cpu1.icache.mem_side_port::system.l2.cpu_side_port         9280                       # Cumulative packet size per connected requestor and responder (Byte)
system.tol2bus.pktSize_system.cpu1.dcache.mem_side_port::system.l2.cpu_side_port    128017536                       # Cumulative packet size per connected requestor and responder (Byte)
system.tol2bus.pktSize_system.cpu2.icache.mem_side_port::system.l2.cpu_side_port         4992                       # Cumulative packet size per connected requestor and responder (Byte)
system.tol2bus.pktSize_system.cpu2.dcache.mem_side_port::system.l2.cpu_side_port    128009664                       # Cumulative packet size per connected requestor and responder (Byte)
system.tol2bus.pktSize_system.cpu3.icache.mem_side_port::system.l2.cpu_side_port         4992                       # Cumulative packet size per connected requestor and responder (Byte)
system.tol2bus.pktSize_system.cpu3.dcache.mem_side_port::system.l2.cpu_side_port    128011072                       # Cumulative packet size per connected requestor and responder (Byte)
system.tol2bus.pktSize::total               536860160                       # Cumulative packet size per connected requestor and responder (Byte)
system.tol2bus.snoops                         5850566                       # Total snoops (Count)
system.tol2bus.snoopTraffic                 160171648                       # Total snoop traffic (Byte)
system.tol2bus.snoopFanout::samples          11734793                       # Request fanout histogram (Count)
system.tol2bus.snoopFanout::mean             0.001072                       # Request fanout histogram (Count)
system.tol2bus.snoopFanout::stdev            0.038663                       # Request fanout histogram (Count)
system.tol2bus.snoopFanout::underflows              0      0.00%      0.00% # Request fanout histogram (Count)
system.tol2bus.snoopFanout::0                11723917     99.91%     99.91% # Request fanout histogram (Count)
system.tol2bus.snoopFanout::1                    9889      0.08%     99.99% # Request fanout histogram (Count)
system.tol2bus.snoopFanout::2                     340      0.00%     99.99% # Request fanout histogram (Count)
system.tol2bus.snoopFanout::3                     578      0.00%    100.00% # Request fanout histogram (Count)
system.tol2bus.snoopFanout::4                      69      0.00%    100.00% # Request fanout histogram (Count)
system.tol2bus.snoopFanout::5                       0      0.00%    100.00% # Request fanout histogram (Count)
system.tol2bus.snoopFanout::6                       0      0.00%    100.00% # Request fanout histogram (Count)
system.tol2bus.snoopFanout::7                       0      0.00%    100.00% # Request fanout histogram (Count)
system.tol2bus.snoopFanout::8                       0      0.00%    100.00% # Request fanout histogram (Count)
system.tol2bus.snoopFanout::9                       0      0.00%    100.00% # Request fanout histogram (Count)
system.tol2bus.snoopFanout::10                      0      0.00%    100.00% # Request fanout histogram (Count)
system.tol2bus.snoopFanout::11                      0      0.00%    100.00% # Request fanout histogram (Count)
system.tol2bus.snoopFanout::12                      0      0.00%    100.00% # Request fanout histogram (Count)
system.tol2bus.snoopFanout::13                      0      0.00%    100.00% # Request fanout histogram (Count)
system.tol2bus.snoopFanout::14                      0      0.00%    100.00% # Request fanout histogram (Count)
system.tol2bus.snoopFanout::15                      0      0.00%    100.00% # Request fanout histogram (Count)
system.tol2bus.snoopFanout::16                      0      0.00%    100.00% # Request fanout histogram (Count)
system.tol2bus.snoopFanout::overflows               0      0.00%    100.00% # Request fanout histogram (Count)
system.tol2bus.snoopFanout::min_value               0                       # Request fanout histogram (Count)
system.tol2bus.snoopFanout::max_value               4                       # Request fanout histogram (Count)
system.tol2bus.snoopFanout::total            11734793                       # Request fanout histogram (Count)
system.tol2bus.power_state.pwrStateResidencyTicks::UNDEFINED  72943279750                       # Cumulative time (in ticks) in various power states (Tick)
system.tol2bus.reqLayer0.occupancy         4193475750                       # Layer occupancy (ticks) (Tick)
system.tol2bus.reqLayer0.utilization              0.1                       # Layer utilization (Ratio)
system.tol2bus.respLayer0.occupancy           2044980                       # Layer occupancy (ticks) (Tick)
system.tol2bus.respLayer0.utilization             0.0                       # Layer utilization (Ratio)
system.tol2bus.respLayer1.occupancy        1316930218                       # Layer occupancy (ticks) (Tick)
system.tol2bus.respLayer1.utilization             0.0                       # Layer utilization (Ratio)
system.tol2bus.respLayer12.occupancy            64223                       # Layer occupancy (ticks) (Tick)
system.tol2bus.respLayer12.utilization            0.0                       # Layer utilization (Ratio)
system.tol2bus.respLayer13.occupancy       1031592186                       # Layer occupancy (ticks) (Tick)
system.tol2bus.respLayer13.utilization            0.0                       # Layer utilization (Ratio)
system.tol2bus.respLayer4.occupancy            115205                       # Layer occupancy (ticks) (Tick)
system.tol2bus.respLayer4.utilization             0.0                       # Layer utilization (Ratio)
system.tol2bus.respLayer5.occupancy        1031677718                       # Layer occupancy (ticks) (Tick)
system.tol2bus.respLayer5.utilization             0.0                       # Layer utilization (Ratio)
system.tol2bus.respLayer8.occupancy             71184                       # Layer occupancy (ticks) (Tick)
system.tol2bus.respLayer8.utilization             0.0                       # Layer utilization (Ratio)
system.tol2bus.respLayer9.occupancy        1031588683                       # Layer occupancy (ticks) (Tick)
system.tol2bus.respLayer9.utilization             0.0                       # Layer utilization (Ratio)
system.tol2bus.snoop_filter.totRequests      11765319                       # Total number of requests made to the snoop filter. (Count)
system.tol2bus.snoop_filter.hitSingleRequests      5880641                       # Number of requests hitting in the snoop filter with a single holder of the requested data. (Count)
system.tol2bus.snoop_filter.hitMultiRequests         4288                       # Number of requests hitting in the snoop filter with multiple (>1) holders of the requested data. (Count)
system.tol2bus.snoop_filter.totSnoops            5862                       # Total number of snoops made to the snoop filter. (Count)
system.tol2bus.snoop_filter.hitSingleSnoops         5660                       # Number of snoops hitting in the snoop filter with a single holder of the requested data. (Count)
system.tol2bus.snoop_filter.hitMultiSnoops          202                       # Number of snoops hitting in the snoop filter with multiple (>1) holders of the requested data. (Count)
system.voltage_domain.voltage                       1                       # Voltage in Volts (Volt)
system.workload.inst.arm                            0                       # number of arm instructions executed (Count)
system.workload.inst.quiesce                        0                       # number of quiesce instructions executed (Count)

---------- End Simulation Statistics   ----------
