
---------- Begin Simulation Statistics ----------
simSeconds                                   0.131694                       # Number of seconds simulated (Second)
simTicks                                 131694375750                       # Number of ticks simulated (Tick)
finalTick                                131694375750                       # Number of ticks from beginning of simulation (restored from checkpoints and never reset) (Tick)
simFreq                                  1000000000000                       # The number of ticks per simulated second ((Tick/Second))
hostSeconds                                   1120.56                       # Real time elapsed on the host (Second)
hostTickRate                                117525951                       # The number of ticks simulated per host second (ticks/s) ((Tick/Second))
hostMemory                                    7751204                       # Number of bytes of host memory used (Byte)
simInsts                                     95661409                       # Number of instructions simulated (Count)
simOps                                      172905726                       # Number of ops (including micro ops) simulated (Count)
hostInstRate                                    85370                       # Simulator instruction rate (inst/s) ((Count/Second))
hostOpRate                                     154304                       # Simulator op (including micro ops) rate (op/s) ((Count/Second))
system.clk_domain.clock                          1000                       # Clock period in ticks (Tick)
system.cpu0.numCycles                       526777504                       # Number of cpu cycles simulated (Cycle)
system.cpu0.numWorkItemsStarted                     0                       # Number of work items this cpu started (Count)
system.cpu0.numWorkItemsCompleted                   0                       # Number of work items this cpu completed (Count)
system.cpu0.instsAdded                      197862814                       # Number of instructions added to the IQ (excludes non-spec) (Count)
system.cpu0.nonSpecInstsAdded                    1168                       # Number of non-speculative instructions added to the IQ (Count)
system.cpu0.instsIssued                     198063389                       # Number of instructions issued (Count)
system.cpu0.squashedInstsIssued                  2103                       # Number of squashed instructions issued (Count)
system.cpu0.squashedInstsExamined            96106500                       # Number of squashed instructions iterated over during squash; mainly for profiling (Count)
system.cpu0.squashedOperandsExamined           744188                       # Number of squashed operands that are examined and possibly removed from graph (Count)
system.cpu0.squashedNonSpecRemoved                426                       # Number of squashed non-spec instructions that were removed (Count)
system.cpu0.numIssuedDist::samples          526364627                       # Number of insts issued each cycle (Count)
system.cpu0.numIssuedDist::mean              0.376286                       # Number of insts issued each cycle (Count)
system.cpu0.numIssuedDist::stdev             1.333481                       # Number of insts issued each cycle (Count)
system.cpu0.numIssuedDist::underflows               0      0.00%      0.00% # Number of insts issued each cycle (Count)
system.cpu0.numIssuedDist::0                469970938     89.29%     89.29% # Number of insts issued each cycle (Count)
system.cpu0.numIssuedDist::1                 15254894      2.90%     92.18% # Number of insts issued each cycle (Count)
system.cpu0.numIssuedDist::2                 11397744      2.17%     94.35% # Number of insts issued each cycle (Count)
system.cpu0.numIssuedDist::3                  4828833      0.92%     95.27% # Number of insts issued each cycle (Count)
system.cpu0.numIssuedDist::4                  6541571      1.24%     96.51% # Number of insts issued each cycle (Count)
system.cpu0.numIssuedDist::5                  5186381      0.99%     97.50% # Number of insts issued each cycle (Count)
system.cpu0.numIssuedDist::6                  4379390      0.83%     98.33% # Number of insts issued each cycle (Count)
system.cpu0.numIssuedDist::7                  3287029      0.62%     98.95% # Number of insts issued each cycle (Count)
system.cpu0.numIssuedDist::8                  5517847      1.05%    100.00% # Number of insts issued each cycle (Count)
system.cpu0.numIssuedDist::overflows                0      0.00%    100.00% # Number of insts issued each cycle (Count)
system.cpu0.numIssuedDist::min_value                0                       # Number of insts issued each cycle (Count)
system.cpu0.numIssuedDist::max_value                8                       # Number of insts issued each cycle (Count)
system.cpu0.numIssuedDist::total            526364627                       # Number of insts issued each cycle (Count)
system.cpu0.statFuBusy::No_OpClass                  0      0.00%      0.00% # attempts to use FU when none available (Count)
system.cpu0.statFuBusy::IntAlu                 113695      0.76%      0.76% # attempts to use FU when none available (Count)
system.cpu0.statFuBusy::IntMult                     0      0.00%      0.76% # attempts to use FU when none available (Count)
system.cpu0.statFuBusy::IntDiv                      0      0.00%      0.76% # attempts to use FU when none available (Count)
system.cpu0.statFuBusy::FloatAdd                    0      0.00%      0.76% # attempts to use FU when none available (Count)
system.cpu0.statFuBusy::FloatCmp                    0      0.00%      0.76% # attempts to use FU when none available (Count)
system.cpu0.statFuBusy::FloatCvt                    7      0.00%      0.76% # attempts to use FU when none available (Count)
system.cpu0.statFuBusy::FloatMult                   0      0.00%      0.76% # attempts to use FU when none available (Count)
system.cpu0.statFuBusy::FloatMultAcc                0      0.00%      0.76% # attempts to use FU when none available (Count)
system.cpu0.statFuBusy::FloatDiv                    0      0.00%      0.76% # attempts to use FU when none available (Count)
system.cpu0.statFuBusy::FloatMisc                   0      0.00%      0.76% # attempts to use FU when none available (Count)
system.cpu0.statFuBusy::FloatSqrt                   0      0.00%      0.76% # attempts to use FU when none available (Count)
system.cpu0.statFuBusy::SimdAdd                     2      0.00%      0.76% # attempts to use FU when none available (Count)
system.cpu0.statFuBusy::SimdAddAcc                  0      0.00%      0.76% # attempts to use FU when none available (Count)
system.cpu0.statFuBusy::SimdAlu                   109      0.00%      0.76% # attempts to use FU when none available (Count)
system.cpu0.statFuBusy::SimdCmp                     0      0.00%      0.76% # attempts to use FU when none available (Count)
system.cpu0.statFuBusy::SimdCvt                    89      0.00%      0.76% # attempts to use FU when none available (Count)
system.cpu0.statFuBusy::SimdMisc                   50      0.00%      0.76% # attempts to use FU when none available (Count)
system.cpu0.statFuBusy::SimdMult                    0      0.00%      0.76% # attempts to use FU when none available (Count)
system.cpu0.statFuBusy::SimdMultAcc                 0      0.00%      0.76% # attempts to use FU when none available (Count)
system.cpu0.statFuBusy::SimdShift                  15      0.00%      0.76% # attempts to use FU when none available (Count)
system.cpu0.statFuBusy::SimdShiftAcc                0      0.00%      0.76% # attempts to use FU when none available (Count)
system.cpu0.statFuBusy::SimdDiv                     0      0.00%      0.76% # attempts to use FU when none available (Count)
system.cpu0.statFuBusy::SimdSqrt                    0      0.00%      0.76% # attempts to use FU when none available (Count)
system.cpu0.statFuBusy::SimdFloatAdd           874830      5.84%      6.60% # attempts to use FU when none available (Count)
system.cpu0.statFuBusy::SimdFloatAlu                0      0.00%      6.60% # attempts to use FU when none available (Count)
system.cpu0.statFuBusy::SimdFloatCmp                0      0.00%      6.60% # attempts to use FU when none available (Count)
system.cpu0.statFuBusy::SimdFloatCvt                0      0.00%      6.60% # attempts to use FU when none available (Count)
system.cpu0.statFuBusy::SimdFloatDiv                0      0.00%      6.60% # attempts to use FU when none available (Count)
system.cpu0.statFuBusy::SimdFloatMisc               0      0.00%      6.60% # attempts to use FU when none available (Count)
system.cpu0.statFuBusy::SimdFloatMult               0      0.00%      6.60% # attempts to use FU when none available (Count)
system.cpu0.statFuBusy::SimdFloatMultAcc            0      0.00%      6.60% # attempts to use FU when none available (Count)
system.cpu0.statFuBusy::SimdFloatSqrt               0      0.00%      6.60% # attempts to use FU when none available (Count)
system.cpu0.statFuBusy::SimdReduceAdd               0      0.00%      6.60% # attempts to use FU when none available (Count)
system.cpu0.statFuBusy::SimdReduceAlu               0      0.00%      6.60% # attempts to use FU when none available (Count)
system.cpu0.statFuBusy::SimdReduceCmp               0      0.00%      6.60% # attempts to use FU when none available (Count)
system.cpu0.statFuBusy::SimdFloatReduceAdd            0      0.00%      6.60% # attempts to use FU when none available (Count)
system.cpu0.statFuBusy::SimdFloatReduceCmp            0      0.00%      6.60% # attempts to use FU when none available (Count)
system.cpu0.statFuBusy::SimdAes                     0      0.00%      6.60% # attempts to use FU when none available (Count)
system.cpu0.statFuBusy::SimdAesMix                  0      0.00%      6.60% # attempts to use FU when none available (Count)
system.cpu0.statFuBusy::SimdSha1Hash                0      0.00%      6.60% # attempts to use FU when none available (Count)
system.cpu0.statFuBusy::SimdSha1Hash2               0      0.00%      6.60% # attempts to use FU when none available (Count)
system.cpu0.statFuBusy::SimdSha256Hash              0      0.00%      6.60% # attempts to use FU when none available (Count)
system.cpu0.statFuBusy::SimdSha256Hash2             0      0.00%      6.60% # attempts to use FU when none available (Count)
system.cpu0.statFuBusy::SimdShaSigma2               0      0.00%      6.60% # attempts to use FU when none available (Count)
system.cpu0.statFuBusy::SimdShaSigma3               0      0.00%      6.60% # attempts to use FU when none available (Count)
system.cpu0.statFuBusy::SimdPredAlu                 0      0.00%      6.60% # attempts to use FU when none available (Count)
system.cpu0.statFuBusy::MemRead               1501533     10.02%     16.61% # attempts to use FU when none available (Count)
system.cpu0.statFuBusy::MemWrite              3500806     23.35%     39.96% # attempts to use FU when none available (Count)
system.cpu0.statFuBusy::FloatMemRead          7750324     51.70%     91.66% # attempts to use FU when none available (Count)
system.cpu0.statFuBusy::FloatMemWrite         1250193      8.34%    100.00% # attempts to use FU when none available (Count)
system.cpu0.statFuBusy::IprAccess                   0      0.00%    100.00% # attempts to use FU when none available (Count)
system.cpu0.statFuBusy::InstPrefetch                0      0.00%    100.00% # attempts to use FU when none available (Count)
system.cpu0.statIssuedInstType_0::No_OpClass     11014992      5.56%      5.56% # Number of instructions issued per FU type, per thread (Count)
system.cpu0.statIssuedInstType_0::IntAlu     76368173     38.56%     44.12% # Number of instructions issued per FU type, per thread (Count)
system.cpu0.statIssuedInstType_0::IntMult          273      0.00%     44.12% # Number of instructions issued per FU type, per thread (Count)
system.cpu0.statIssuedInstType_0::IntDiv         3074      0.00%     44.12% # Number of instructions issued per FU type, per thread (Count)
system.cpu0.statIssuedInstType_0::FloatAdd      5505815      2.78%     46.90% # Number of instructions issued per FU type, per thread (Count)
system.cpu0.statIssuedInstType_0::FloatCmp            0      0.00%     46.90% # Number of instructions issued per FU type, per thread (Count)
system.cpu0.statIssuedInstType_0::FloatCvt          490      0.00%     46.90% # Number of instructions issued per FU type, per thread (Count)
system.cpu0.statIssuedInstType_0::FloatMult            0      0.00%     46.90% # Number of instructions issued per FU type, per thread (Count)
system.cpu0.statIssuedInstType_0::FloatMultAcc            0      0.00%     46.90% # Number of instructions issued per FU type, per thread (Count)
system.cpu0.statIssuedInstType_0::FloatDiv            0      0.00%     46.90% # Number of instructions issued per FU type, per thread (Count)
system.cpu0.statIssuedInstType_0::FloatMisc            0      0.00%     46.90% # Number of instructions issued per FU type, per thread (Count)
system.cpu0.statIssuedInstType_0::FloatSqrt            0      0.00%     46.90% # Number of instructions issued per FU type, per thread (Count)
system.cpu0.statIssuedInstType_0::SimdAdd         2684      0.00%     46.90% # Number of instructions issued per FU type, per thread (Count)
system.cpu0.statIssuedInstType_0::SimdAddAcc            0      0.00%     46.90% # Number of instructions issued per FU type, per thread (Count)
system.cpu0.statIssuedInstType_0::SimdAlu        32445      0.02%     46.92% # Number of instructions issued per FU type, per thread (Count)
system.cpu0.statIssuedInstType_0::SimdCmp           70      0.00%     46.92% # Number of instructions issued per FU type, per thread (Count)
system.cpu0.statIssuedInstType_0::SimdCvt         6179      0.00%     46.92% # Number of instructions issued per FU type, per thread (Count)
system.cpu0.statIssuedInstType_0::SimdMisc         4042      0.00%     46.92% # Number of instructions issued per FU type, per thread (Count)
system.cpu0.statIssuedInstType_0::SimdMult            0      0.00%     46.92% # Number of instructions issued per FU type, per thread (Count)
system.cpu0.statIssuedInstType_0::SimdMultAcc            0      0.00%     46.92% # Number of instructions issued per FU type, per thread (Count)
system.cpu0.statIssuedInstType_0::SimdShift         1511      0.00%     46.92% # Number of instructions issued per FU type, per thread (Count)
system.cpu0.statIssuedInstType_0::SimdShiftAcc            0      0.00%     46.92% # Number of instructions issued per FU type, per thread (Count)
system.cpu0.statIssuedInstType_0::SimdDiv            0      0.00%     46.92% # Number of instructions issued per FU type, per thread (Count)
system.cpu0.statIssuedInstType_0::SimdSqrt            0      0.00%     46.92% # Number of instructions issued per FU type, per thread (Count)
system.cpu0.statIssuedInstType_0::SimdFloatAdd     10509119      5.31%     52.23% # Number of instructions issued per FU type, per thread (Count)
system.cpu0.statIssuedInstType_0::SimdFloatAlu            0      0.00%     52.23% # Number of instructions issued per FU type, per thread (Count)
system.cpu0.statIssuedInstType_0::SimdFloatCmp           24      0.00%     52.23% # Number of instructions issued per FU type, per thread (Count)
system.cpu0.statIssuedInstType_0::SimdFloatCvt      3017935      1.52%     53.75% # Number of instructions issued per FU type, per thread (Count)
system.cpu0.statIssuedInstType_0::SimdFloatDiv           18      0.00%     53.75% # Number of instructions issued per FU type, per thread (Count)
system.cpu0.statIssuedInstType_0::SimdFloatMisc            0      0.00%     53.75% # Number of instructions issued per FU type, per thread (Count)
system.cpu0.statIssuedInstType_0::SimdFloatMult      4006636      2.02%     55.78% # Number of instructions issued per FU type, per thread (Count)
system.cpu0.statIssuedInstType_0::SimdFloatMultAcc            0      0.00%     55.78% # Number of instructions issued per FU type, per thread (Count)
system.cpu0.statIssuedInstType_0::SimdFloatSqrt            0      0.00%     55.78% # Number of instructions issued per FU type, per thread (Count)
system.cpu0.statIssuedInstType_0::SimdReduceAdd            0      0.00%     55.78% # Number of instructions issued per FU type, per thread (Count)
system.cpu0.statIssuedInstType_0::SimdReduceAlu            0      0.00%     55.78% # Number of instructions issued per FU type, per thread (Count)
system.cpu0.statIssuedInstType_0::SimdReduceCmp            0      0.00%     55.78% # Number of instructions issued per FU type, per thread (Count)
system.cpu0.statIssuedInstType_0::SimdFloatReduceAdd            0      0.00%     55.78% # Number of instructions issued per FU type, per thread (Count)
system.cpu0.statIssuedInstType_0::SimdFloatReduceCmp            0      0.00%     55.78% # Number of instructions issued per FU type, per thread (Count)
system.cpu0.statIssuedInstType_0::SimdAes            0      0.00%     55.78% # Number of instructions issued per FU type, per thread (Count)
system.cpu0.statIssuedInstType_0::SimdAesMix            0      0.00%     55.78% # Number of instructions issued per FU type, per thread (Count)
system.cpu0.statIssuedInstType_0::SimdSha1Hash            0      0.00%     55.78% # Number of instructions issued per FU type, per thread (Count)
system.cpu0.statIssuedInstType_0::SimdSha1Hash2            0      0.00%     55.78% # Number of instructions issued per FU type, per thread (Count)
system.cpu0.statIssuedInstType_0::SimdSha256Hash            0      0.00%     55.78% # Number of instructions issued per FU type, per thread (Count)
system.cpu0.statIssuedInstType_0::SimdSha256Hash2            0      0.00%     55.78% # Number of instructions issued per FU type, per thread (Count)
system.cpu0.statIssuedInstType_0::SimdShaSigma2            0      0.00%     55.78% # Number of instructions issued per FU type, per thread (Count)
system.cpu0.statIssuedInstType_0::SimdShaSigma3            0      0.00%     55.78% # Number of instructions issued per FU type, per thread (Count)
system.cpu0.statIssuedInstType_0::SimdPredAlu            0      0.00%     55.78% # Number of instructions issued per FU type, per thread (Count)
system.cpu0.statIssuedInstType_0::MemRead      5668158      2.86%     58.64% # Number of instructions issued per FU type, per thread (Count)
system.cpu0.statIssuedInstType_0::MemWrite     12556587      6.34%     64.98% # Number of instructions issued per FU type, per thread (Count)
system.cpu0.statIssuedInstType_0::FloatMemRead     38861369     19.62%     84.60% # Number of instructions issued per FU type, per thread (Count)
system.cpu0.statIssuedInstType_0::FloatMemWrite     30503795     15.40%    100.00% # Number of instructions issued per FU type, per thread (Count)
system.cpu0.statIssuedInstType_0::IprAccess            0      0.00%    100.00% # Number of instructions issued per FU type, per thread (Count)
system.cpu0.statIssuedInstType_0::InstPrefetch            0      0.00%    100.00% # Number of instructions issued per FU type, per thread (Count)
system.cpu0.statIssuedInstType_0::total     198063389                       # Number of instructions issued per FU type, per thread (Count)
system.cpu0.issueRate                        0.375991                       # Inst issue rate ((Count/Cycle))
system.cpu0.fuBusy                           14991653                       # FU busy when requested (Count)
system.cpu0.fuBusyRate                       0.075691                       # FU busy rate (busy events/executed inst) ((Count/Count))
system.cpu0.intInstQueueReads               726582335                       # Number of integer instruction queue reads (Count)
system.cpu0.intInstQueueWrites              152728941                       # Number of integer instruction queue writes (Count)
system.cpu0.intInstQueueWakeupAccesses       86555534                       # Number of integer instruction queue wakeup accesses (Count)
system.cpu0.fpInstQueueReads                210902826                       # Number of floating instruction queue reads (Count)
system.cpu0.fpInstQueueWrites               141241882                       # Number of floating instruction queue writes (Count)
system.cpu0.fpInstQueueWakeupAccesses       100134941                       # Number of floating instruction queue wakeup accesses (Count)
system.cpu0.vecInstQueueReads                       0                       # Number of vector instruction queue reads (Count)
system.cpu0.vecInstQueueWrites                      0                       # Number of vector instruction queue writes (Count)
system.cpu0.vecInstQueueWakeupAccesses              0                       # Number of vector instruction queue wakeup accesses (Count)
system.cpu0.intAluAccesses                   91601919                       # Number of integer alu accesses (Count)
system.cpu0.fpAluAccesses                   110438131                       # Number of floating point alu accesses (Count)
system.cpu0.vecAluAccesses                          0                       # Number of vector alu accesses (Count)
system.cpu0.numInsts                        198037270                       # Number of executed instructions (Count)
system.cpu0.numLoadInsts                     44523573                       # Number of load instructions executed (Count)
system.cpu0.numSquashedInsts                    26119                       # Number of squashed instructions skipped in execute (Count)
system.cpu0.numSwp                                  0                       # Number of swp insts executed (Count)
system.cpu0.numNop                                  0                       # Number of nop insts executed (Count)
system.cpu0.numRefs                          87582968                       # Number of memory reference insts executed (Count)
system.cpu0.numBranches                       9095690                       # Number of branches executed (Count)
system.cpu0.numStoreInsts                    43059395                       # Number of stores executed (Count)
system.cpu0.numRate                          0.375941                       # Inst execution rate ((Count/Cycle))
system.cpu0.timesIdled                           1745                       # Number of times that the entire CPU went into an idle state and unscheduled itself (Count)
system.cpu0.idleCycles                         412877                       # Total number of cycles that the CPU has spent unscheduled due to idling (Cycle)
system.cpu0.committedInsts                   56022098                       # Number of Instructions Simulated (Count)
system.cpu0.committedOps                    101757476                       # Number of Ops (including micro ops) Simulated (Count)
system.cpu0.cpi                              9.403031                       # CPI: Cycles Per Instruction ((Cycle/Count))
system.cpu0.totalCpi                         9.403031                       # CPI: Total CPI of All Threads ((Cycle/Count))
system.cpu0.ipc                              0.106349                       # IPC: Instructions Per Cycle ((Count/Cycle))
system.cpu0.totalIpc                         0.106349                       # IPC: Total IPC of All Threads ((Count/Cycle))
system.cpu0.intRegfileReads                 155872983                       # Number of integer regfile reads (Count)
system.cpu0.intRegfileWrites                 53357844                       # Number of integer regfile writes (Count)
system.cpu0.fpRegfileReads                   96200471                       # Number of floating regfile reads (Count)
system.cpu0.fpRegfileWrites                  66623658                       # Number of floating regfile writes (Count)
system.cpu0.ccRegfileReads                   51424063                       # number of cc regfile reads (Count)
system.cpu0.ccRegfileWrites                  47607982                       # number of cc regfile writes (Count)
system.cpu0.miscRegfileReads                105793725                       # number of misc regfile reads (Count)
system.cpu0.miscRegfileWrites                     234                       # number of misc regfile writes (Count)
system.cpu0.MemDepUnit__0.insertedLoads      44215365                       # Number of loads inserted to the mem dependence unit. (Count)
system.cpu0.MemDepUnit__0.insertedStores     43065882                       # Number of stores inserted to the mem dependence unit. (Count)
system.cpu0.MemDepUnit__0.conflictingLoads       503955                       # Number of conflicting loads. (Count)
system.cpu0.MemDepUnit__0.conflictingStores       503010                       # Number of conflicting stores. (Count)
system.cpu0.MemDepUnit__1.insertedLoads             0                       # Number of loads inserted to the mem dependence unit. (Count)
system.cpu0.MemDepUnit__1.insertedStores            0                       # Number of stores inserted to the mem dependence unit. (Count)
system.cpu0.MemDepUnit__1.conflictingLoads            0                       # Number of conflicting loads. (Count)
system.cpu0.MemDepUnit__1.conflictingStores            0                       # Number of conflicting stores. (Count)
system.cpu0.MemDepUnit__2.insertedLoads             0                       # Number of loads inserted to the mem dependence unit. (Count)
system.cpu0.MemDepUnit__2.insertedStores            0                       # Number of stores inserted to the mem dependence unit. (Count)
system.cpu0.MemDepUnit__2.conflictingLoads            0                       # Number of conflicting loads. (Count)
system.cpu0.MemDepUnit__2.conflictingStores            0                       # Number of conflicting stores. (Count)
system.cpu0.MemDepUnit__3.insertedLoads             0                       # Number of loads inserted to the mem dependence unit. (Count)
system.cpu0.MemDepUnit__3.insertedStores            0                       # Number of stores inserted to the mem dependence unit. (Count)
system.cpu0.MemDepUnit__3.conflictingLoads            0                       # Number of conflicting loads. (Count)
system.cpu0.MemDepUnit__3.conflictingStores            0                       # Number of conflicting stores. (Count)
system.cpu0.branchPred.lookups               10647233                       # Number of BP lookups (Count)
system.cpu0.branchPred.condPredicted         10596583                       # Number of conditional branches predicted (Count)
system.cpu0.branchPred.condIncorrect             8875                       # Number of conditional branches incorrect (Count)
system.cpu0.branchPred.BTBLookups             7530706                       # Number of BTB lookups (Count)
system.cpu0.branchPred.BTBHits                7526962                       # Number of BTB hits (Count)
system.cpu0.branchPred.BTBHitRatio           0.999503                       # BTB Hit Ratio (Ratio)
system.cpu0.branchPred.RASUsed                  19254                       # Number of times the RAS was used to get a target. (Count)
system.cpu0.branchPred.RASIncorrect                11                       # Number of incorrect RAS predictions. (Count)
system.cpu0.branchPred.indirectLookups           9163                       # Number of indirect predictor lookups. (Count)
system.cpu0.branchPred.indirectHits              5607                       # Number of indirect target hits. (Count)
system.cpu0.branchPred.indirectMisses            3556                       # Number of indirect misses. (Count)
system.cpu0.branchPred.indirectMispredicted          803                       # Number of mispredicted indirect branches. (Count)
system.cpu0.commit.commitSquashedInsts       85005136                       # The number of squashed insts skipped by commit (Count)
system.cpu0.commit.commitNonSpecStalls            742                       # The number of times commit has been forced to stall to communicate backwards (Count)
system.cpu0.commit.branchMispredicts             8529                       # The number of times a branch was mispredicted (Count)
system.cpu0.commit.numCommittedDist::samples    515041345                       # Number of insts commited each cycle (Count)
system.cpu0.commit.numCommittedDist::mean     0.197571                       # Number of insts commited each cycle (Count)
system.cpu0.commit.numCommittedDist::stdev     1.063759                       # Number of insts commited each cycle (Count)
system.cpu0.commit.numCommittedDist::underflows            0      0.00%      0.00% # Number of insts commited each cycle (Count)
system.cpu0.commit.numCommittedDist::0      488921454     94.93%     94.93% # Number of insts commited each cycle (Count)
system.cpu0.commit.numCommittedDist::1        8218134      1.60%     96.52% # Number of insts commited each cycle (Count)
system.cpu0.commit.numCommittedDist::2        2872041      0.56%     97.08% # Number of insts commited each cycle (Count)
system.cpu0.commit.numCommittedDist::3        2782998      0.54%     97.62% # Number of insts commited each cycle (Count)
system.cpu0.commit.numCommittedDist::4        4115667      0.80%     98.42% # Number of insts commited each cycle (Count)
system.cpu0.commit.numCommittedDist::5         463890      0.09%     98.51% # Number of insts commited each cycle (Count)
system.cpu0.commit.numCommittedDist::6          57271      0.01%     98.52% # Number of insts commited each cycle (Count)
system.cpu0.commit.numCommittedDist::7         558598      0.11%     98.63% # Number of insts commited each cycle (Count)
system.cpu0.commit.numCommittedDist::8        7051292      1.37%    100.00% # Number of insts commited each cycle (Count)
system.cpu0.commit.numCommittedDist::overflows            0      0.00%    100.00% # Number of insts commited each cycle (Count)
system.cpu0.commit.numCommittedDist::min_value            0                       # Number of insts commited each cycle (Count)
system.cpu0.commit.numCommittedDist::max_value            8                       # Number of insts commited each cycle (Count)
system.cpu0.commit.numCommittedDist::total    515041345                       # Number of insts commited each cycle (Count)
system.cpu0.commit.instsCommitted            56022098                       # Number of instructions committed (Count)
system.cpu0.commit.opsCommitted             101757476                       # Number of ops (including micro ops) committed (Count)
system.cpu0.commit.memRefs                   30166622                       # Number of memory references committed (Count)
system.cpu0.commit.loads                     19122510                       # Number of loads committed (Count)
system.cpu0.commit.amos                             0                       # Number of atomic instructions committed (Count)
system.cpu0.commit.membars                        336                       # Number of memory barriers committed (Count)
system.cpu0.commit.branches                   6556338                       # Number of branches committed (Count)
system.cpu0.commit.vectorInstructions               0                       # Number of committed Vector instructions. (Count)
system.cpu0.commit.floating                  59068020                       # Number of committed floating point instructions. (Count)
system.cpu0.commit.integer                   70698938                       # Number of committed integer instructions. (Count)
system.cpu0.commit.functionCalls                 7971                       # Number of function calls committed. (Count)
system.cpu0.commit.committedInstType_0::No_OpClass         6726      0.01%      0.01% # Class of committed instruction (Count)
system.cpu0.commit.committedInstType_0::IntAlu     48540555     47.70%     47.71% # Class of committed instruction (Count)
system.cpu0.commit.committedInstType_0::IntMult          254      0.00%     47.71% # Class of committed instruction (Count)
system.cpu0.commit.committedInstType_0::IntDiv         2804      0.00%     47.71% # Class of committed instruction (Count)
system.cpu0.commit.committedInstType_0::FloatAdd      5502912      5.41%     53.12% # Class of committed instruction (Count)
system.cpu0.commit.committedInstType_0::FloatCmp            0      0.00%     53.12% # Class of committed instruction (Count)
system.cpu0.commit.committedInstType_0::FloatCvt          416      0.00%     53.12% # Class of committed instruction (Count)
system.cpu0.commit.committedInstType_0::FloatMult            0      0.00%     53.12% # Class of committed instruction (Count)
system.cpu0.commit.committedInstType_0::FloatMultAcc            0      0.00%     53.12% # Class of committed instruction (Count)
system.cpu0.commit.committedInstType_0::FloatDiv            0      0.00%     53.12% # Class of committed instruction (Count)
system.cpu0.commit.committedInstType_0::FloatMisc            0      0.00%     53.12% # Class of committed instruction (Count)
system.cpu0.commit.committedInstType_0::FloatSqrt            0      0.00%     53.12% # Class of committed instruction (Count)
system.cpu0.commit.committedInstType_0::SimdAdd         2098      0.00%     53.12% # Class of committed instruction (Count)
system.cpu0.commit.committedInstType_0::SimdAddAcc            0      0.00%     53.12% # Class of committed instruction (Count)
system.cpu0.commit.committedInstType_0::SimdAlu        12656      0.01%     53.13% # Class of committed instruction (Count)
system.cpu0.commit.committedInstType_0::SimdCmp           66      0.00%     53.13% # Class of committed instruction (Count)
system.cpu0.commit.committedInstType_0::SimdCvt         4504      0.00%     53.14% # Class of committed instruction (Count)
system.cpu0.commit.committedInstType_0::SimdMisc         3385      0.00%     53.14% # Class of committed instruction (Count)
system.cpu0.commit.committedInstType_0::SimdMult            0      0.00%     53.14% # Class of committed instruction (Count)
system.cpu0.commit.committedInstType_0::SimdMultAcc            0      0.00%     53.14% # Class of committed instruction (Count)
system.cpu0.commit.committedInstType_0::SimdShift          727      0.00%     53.14% # Class of committed instruction (Count)
system.cpu0.commit.committedInstType_0::SimdShiftAcc            0      0.00%     53.14% # Class of committed instruction (Count)
system.cpu0.commit.committedInstType_0::SimdDiv            0      0.00%     53.14% # Class of committed instruction (Count)
system.cpu0.commit.committedInstType_0::SimdSqrt            0      0.00%     53.14% # Class of committed instruction (Count)
system.cpu0.commit.committedInstType_0::SimdFloatAdd     10504556     10.32%     63.47% # Class of committed instruction (Count)
system.cpu0.commit.committedInstType_0::SimdFloatAlu            0      0.00%     63.47% # Class of committed instruction (Count)
system.cpu0.commit.committedInstType_0::SimdFloatCmp           24      0.00%     63.47% # Class of committed instruction (Count)
system.cpu0.commit.committedInstType_0::SimdFloatCvt      3006847      2.95%     66.42% # Class of committed instruction (Count)
system.cpu0.commit.committedInstType_0::SimdFloatDiv           15      0.00%     66.42% # Class of committed instruction (Count)
system.cpu0.commit.committedInstType_0::SimdFloatMisc            0      0.00%     66.42% # Class of committed instruction (Count)
system.cpu0.commit.committedInstType_0::SimdFloatMult      4002309      3.93%     70.35% # Class of committed instruction (Count)
system.cpu0.commit.committedInstType_0::SimdFloatMultAcc            0      0.00%     70.35% # Class of committed instruction (Count)
system.cpu0.commit.committedInstType_0::SimdFloatSqrt            0      0.00%     70.35% # Class of committed instruction (Count)
system.cpu0.commit.committedInstType_0::SimdReduceAdd            0      0.00%     70.35% # Class of committed instruction (Count)
system.cpu0.commit.committedInstType_0::SimdReduceAlu            0      0.00%     70.35% # Class of committed instruction (Count)
system.cpu0.commit.committedInstType_0::SimdReduceCmp            0      0.00%     70.35% # Class of committed instruction (Count)
system.cpu0.commit.committedInstType_0::SimdFloatReduceAdd            0      0.00%     70.35% # Class of committed instruction (Count)
system.cpu0.commit.committedInstType_0::SimdFloatReduceCmp            0      0.00%     70.35% # Class of committed instruction (Count)
system.cpu0.commit.committedInstType_0::SimdAes            0      0.00%     70.35% # Class of committed instruction (Count)
system.cpu0.commit.committedInstType_0::SimdAesMix            0      0.00%     70.35% # Class of committed instruction (Count)
system.cpu0.commit.committedInstType_0::SimdSha1Hash            0      0.00%     70.35% # Class of committed instruction (Count)
system.cpu0.commit.committedInstType_0::SimdSha1Hash2            0      0.00%     70.35% # Class of committed instruction (Count)
system.cpu0.commit.committedInstType_0::SimdSha256Hash            0      0.00%     70.35% # Class of committed instruction (Count)
system.cpu0.commit.committedInstType_0::SimdSha256Hash2            0      0.00%     70.35% # Class of committed instruction (Count)
system.cpu0.commit.committedInstType_0::SimdShaSigma2            0      0.00%     70.35% # Class of committed instruction (Count)
system.cpu0.commit.committedInstType_0::SimdShaSigma3            0      0.00%     70.35% # Class of committed instruction (Count)
system.cpu0.commit.committedInstType_0::SimdPredAlu            0      0.00%     70.35% # Class of committed instruction (Count)
system.cpu0.commit.committedInstType_0::MemRead       604456      0.59%     70.95% # Class of committed instruction (Count)
system.cpu0.commit.committedInstType_0::MemWrite      1540140      1.51%     72.46% # Class of committed instruction (Count)
system.cpu0.commit.committedInstType_0::FloatMemRead     18518054     18.20%     90.66% # Class of committed instruction (Count)
system.cpu0.commit.committedInstType_0::FloatMemWrite      9503972      9.34%    100.00% # Class of committed instruction (Count)
system.cpu0.commit.committedInstType_0::IprAccess            0      0.00%    100.00% # Class of committed instruction (Count)
system.cpu0.commit.committedInstType_0::InstPrefetch            0      0.00%    100.00% # Class of committed instruction (Count)
system.cpu0.commit.committedInstType_0::total    101757476                       # Class of committed instruction (Count)
system.cpu0.commit.commitEligibleSamples      7051292                       # number cycles where commit BW limit reached (Cycle)
system.cpu0.dcache.demandHits::cpu0.data     35449290                       # number of demand (read+write) hits (Count)
system.cpu0.dcache.demandHits::total         35449290                       # number of demand (read+write) hits (Count)
system.cpu0.dcache.overallHits::cpu0.data     40670066                       # number of overall hits (Count)
system.cpu0.dcache.overallHits::total        40670066                       # number of overall hits (Count)
system.cpu0.dcache.demandMisses::cpu0.data     13273933                       # number of demand (read+write) misses (Count)
system.cpu0.dcache.demandMisses::total       13273933                       # number of demand (read+write) misses (Count)
system.cpu0.dcache.overallMisses::cpu0.data     13552981                       # number of overall misses (Count)
system.cpu0.dcache.overallMisses::total      13552981                       # number of overall misses (Count)
system.cpu0.dcache.demandMissLatency::cpu0.data 411450851237                       # number of demand (read+write) miss ticks (Tick)
system.cpu0.dcache.demandMissLatency::total 411450851237                       # number of demand (read+write) miss ticks (Tick)
system.cpu0.dcache.overallMissLatency::cpu0.data 411450851237                       # number of overall miss ticks (Tick)
system.cpu0.dcache.overallMissLatency::total 411450851237                       # number of overall miss ticks (Tick)
system.cpu0.dcache.demandAccesses::cpu0.data     48723223                       # number of demand (read+write) accesses (Count)
system.cpu0.dcache.demandAccesses::total     48723223                       # number of demand (read+write) accesses (Count)
system.cpu0.dcache.overallAccesses::cpu0.data     54223047                       # number of overall (read+write) accesses (Count)
system.cpu0.dcache.overallAccesses::total     54223047                       # number of overall (read+write) accesses (Count)
system.cpu0.dcache.demandMissRate::cpu0.data     0.272435                       # miss rate for demand accesses (Ratio)
system.cpu0.dcache.demandMissRate::total     0.272435                       # miss rate for demand accesses (Ratio)
system.cpu0.dcache.overallMissRate::cpu0.data     0.249949                       # miss rate for overall accesses (Ratio)
system.cpu0.dcache.overallMissRate::total     0.249949                       # miss rate for overall accesses (Ratio)
system.cpu0.dcache.demandAvgMissLatency::cpu0.data 30996.905833                       # average overall miss latency in ticks ((Tick/Count))
system.cpu0.dcache.demandAvgMissLatency::total 30996.905833                       # average overall miss latency in ticks ((Tick/Count))
system.cpu0.dcache.overallAvgMissLatency::cpu0.data 30358.697562                       # average overall miss latency ((Tick/Count))
system.cpu0.dcache.overallAvgMissLatency::total 30358.697562                       # average overall miss latency ((Tick/Count))
system.cpu0.dcache.blockedCycles::no_mshrs     12606708                       # number of cycles access was blocked (Cycle)
system.cpu0.dcache.blockedCycles::no_targets         2514                       # number of cycles access was blocked (Cycle)
system.cpu0.dcache.blockedCauses::no_mshrs       844231                       # number of times access was blocked (Count)
system.cpu0.dcache.blockedCauses::no_targets           24                       # number of times access was blocked (Count)
system.cpu0.dcache.avgBlocked::no_mshrs     14.932771                       # average number of cycles each access was blocked ((Cycle/Count))
system.cpu0.dcache.avgBlocked::no_targets   104.750000                       # average number of cycles each access was blocked ((Cycle/Count))
system.cpu0.dcache.writebacks::writebacks      1252077                       # number of writebacks (Count)
system.cpu0.dcache.writebacks::total          1252077                       # number of writebacks (Count)
system.cpu0.dcache.demandMshrHits::cpu0.data     10393277                       # number of demand (read+write) MSHR hits (Count)
system.cpu0.dcache.demandMshrHits::total     10393277                       # number of demand (read+write) MSHR hits (Count)
system.cpu0.dcache.overallMshrHits::cpu0.data     10393277                       # number of overall MSHR hits (Count)
system.cpu0.dcache.overallMshrHits::total     10393277                       # number of overall MSHR hits (Count)
system.cpu0.dcache.demandMshrMisses::cpu0.data      2880656                       # number of demand (read+write) MSHR misses (Count)
system.cpu0.dcache.demandMshrMisses::total      2880656                       # number of demand (read+write) MSHR misses (Count)
system.cpu0.dcache.overallMshrMisses::cpu0.data      3130651                       # number of overall MSHR misses (Count)
system.cpu0.dcache.overallMshrMisses::total      3130651                       # number of overall MSHR misses (Count)
system.cpu0.dcache.demandMshrMissLatency::cpu0.data 248966750487                       # number of demand (read+write) MSHR miss ticks (Tick)
system.cpu0.dcache.demandMshrMissLatency::total 248966750487                       # number of demand (read+write) MSHR miss ticks (Tick)
system.cpu0.dcache.overallMshrMissLatency::cpu0.data 270371542237                       # number of overall MSHR miss ticks (Tick)
system.cpu0.dcache.overallMshrMissLatency::total 270371542237                       # number of overall MSHR miss ticks (Tick)
system.cpu0.dcache.demandMshrMissRate::cpu0.data     0.059123                       # mshr miss ratio for demand accesses (Ratio)
system.cpu0.dcache.demandMshrMissRate::total     0.059123                       # mshr miss ratio for demand accesses (Ratio)
system.cpu0.dcache.overallMshrMissRate::cpu0.data     0.057737                       # mshr miss ratio for overall accesses (Ratio)
system.cpu0.dcache.overallMshrMissRate::total     0.057737                       # mshr miss ratio for overall accesses (Ratio)
system.cpu0.dcache.demandAvgMshrMissLatency::cpu0.data 86427.102190                       # average overall mshr miss latency ((Tick/Count))
system.cpu0.dcache.demandAvgMshrMissLatency::total 86427.102190                       # average overall mshr miss latency ((Tick/Count))
system.cpu0.dcache.overallAvgMshrMissLatency::cpu0.data 86362.722078                       # average overall mshr miss latency ((Tick/Count))
system.cpu0.dcache.overallAvgMshrMissLatency::total 86362.722078                       # average overall mshr miss latency ((Tick/Count))
system.cpu0.dcache.replacements               3129520                       # number of replacements (Count)
system.cpu0.dcache.LockedRMWReadReq.hits::cpu0.data          126                       # number of LockedRMWReadReq hits (Count)
system.cpu0.dcache.LockedRMWReadReq.hits::total          126                       # number of LockedRMWReadReq hits (Count)
system.cpu0.dcache.LockedRMWReadReq.misses::cpu0.data           42                       # number of LockedRMWReadReq misses (Count)
system.cpu0.dcache.LockedRMWReadReq.misses::total           42                       # number of LockedRMWReadReq misses (Count)
system.cpu0.dcache.LockedRMWReadReq.missLatency::cpu0.data      1121250                       # number of LockedRMWReadReq miss ticks (Tick)
system.cpu0.dcache.LockedRMWReadReq.missLatency::total      1121250                       # number of LockedRMWReadReq miss ticks (Tick)
system.cpu0.dcache.LockedRMWReadReq.accesses::cpu0.data          168                       # number of LockedRMWReadReq accesses(hits+misses) (Count)
system.cpu0.dcache.LockedRMWReadReq.accesses::total          168                       # number of LockedRMWReadReq accesses(hits+misses) (Count)
system.cpu0.dcache.LockedRMWReadReq.missRate::cpu0.data     0.250000                       # miss rate for LockedRMWReadReq accesses (Ratio)
system.cpu0.dcache.LockedRMWReadReq.missRate::total     0.250000                       # miss rate for LockedRMWReadReq accesses (Ratio)
system.cpu0.dcache.LockedRMWReadReq.avgMissLatency::cpu0.data 26696.428571                       # average LockedRMWReadReq miss latency ((Tick/Count))
system.cpu0.dcache.LockedRMWReadReq.avgMissLatency::total 26696.428571                       # average LockedRMWReadReq miss latency ((Tick/Count))
system.cpu0.dcache.LockedRMWReadReq.mshrMisses::cpu0.data           42                       # number of LockedRMWReadReq MSHR misses (Count)
system.cpu0.dcache.LockedRMWReadReq.mshrMisses::total           42                       # number of LockedRMWReadReq MSHR misses (Count)
system.cpu0.dcache.LockedRMWReadReq.mshrMissLatency::cpu0.data      2598250                       # number of LockedRMWReadReq MSHR miss ticks (Tick)
system.cpu0.dcache.LockedRMWReadReq.mshrMissLatency::total      2598250                       # number of LockedRMWReadReq MSHR miss ticks (Tick)
system.cpu0.dcache.LockedRMWReadReq.mshrMissRate::cpu0.data     0.250000                       # mshr miss rate for LockedRMWReadReq accesses (Ratio)
system.cpu0.dcache.LockedRMWReadReq.mshrMissRate::total     0.250000                       # mshr miss rate for LockedRMWReadReq accesses (Ratio)
system.cpu0.dcache.LockedRMWReadReq.avgMshrMissLatency::cpu0.data 61863.095238                       # average LockedRMWReadReq mshr miss latency ((Tick/Count))
system.cpu0.dcache.LockedRMWReadReq.avgMshrMissLatency::total 61863.095238                       # average LockedRMWReadReq mshr miss latency ((Tick/Count))
system.cpu0.dcache.LockedRMWWriteReq.hits::cpu0.data          168                       # number of LockedRMWWriteReq hits (Count)
system.cpu0.dcache.LockedRMWWriteReq.hits::total          168                       # number of LockedRMWWriteReq hits (Count)
system.cpu0.dcache.LockedRMWWriteReq.accesses::cpu0.data          168                       # number of LockedRMWWriteReq accesses(hits+misses) (Count)
system.cpu0.dcache.LockedRMWWriteReq.accesses::total          168                       # number of LockedRMWWriteReq accesses(hits+misses) (Count)
system.cpu0.dcache.ReadReq.hits::cpu0.data     26594175                       # number of ReadReq hits (Count)
system.cpu0.dcache.ReadReq.hits::total       26594175                       # number of ReadReq hits (Count)
system.cpu0.dcache.ReadReq.misses::cpu0.data     12085067                       # number of ReadReq misses (Count)
system.cpu0.dcache.ReadReq.misses::total     12085067                       # number of ReadReq misses (Count)
system.cpu0.dcache.ReadReq.missLatency::cpu0.data 311439709000                       # number of ReadReq miss ticks (Tick)
system.cpu0.dcache.ReadReq.missLatency::total 311439709000                       # number of ReadReq miss ticks (Tick)
system.cpu0.dcache.ReadReq.accesses::cpu0.data     38679242                       # number of ReadReq accesses(hits+misses) (Count)
system.cpu0.dcache.ReadReq.accesses::total     38679242                       # number of ReadReq accesses(hits+misses) (Count)
system.cpu0.dcache.ReadReq.missRate::cpu0.data     0.312443                       # miss rate for ReadReq accesses (Ratio)
system.cpu0.dcache.ReadReq.missRate::total     0.312443                       # miss rate for ReadReq accesses (Ratio)
system.cpu0.dcache.ReadReq.avgMissLatency::cpu0.data 25770.623282                       # average ReadReq miss latency ((Tick/Count))
system.cpu0.dcache.ReadReq.avgMissLatency::total 25770.623282                       # average ReadReq miss latency ((Tick/Count))
system.cpu0.dcache.ReadReq.mshrHits::cpu0.data     10393271                       # number of ReadReq MSHR hits (Count)
system.cpu0.dcache.ReadReq.mshrHits::total     10393271                       # number of ReadReq MSHR hits (Count)
system.cpu0.dcache.ReadReq.mshrMisses::cpu0.data      1691796                       # number of ReadReq MSHR misses (Count)
system.cpu0.dcache.ReadReq.mshrMisses::total      1691796                       # number of ReadReq MSHR misses (Count)
system.cpu0.dcache.ReadReq.mshrMissLatency::cpu0.data 149550325500                       # number of ReadReq MSHR miss ticks (Tick)
system.cpu0.dcache.ReadReq.mshrMissLatency::total 149550325500                       # number of ReadReq MSHR miss ticks (Tick)
system.cpu0.dcache.ReadReq.mshrMissRate::cpu0.data     0.043739                       # mshr miss rate for ReadReq accesses (Ratio)
system.cpu0.dcache.ReadReq.mshrMissRate::total     0.043739                       # mshr miss rate for ReadReq accesses (Ratio)
system.cpu0.dcache.ReadReq.avgMshrMissLatency::cpu0.data 88397.375038                       # average ReadReq mshr miss latency ((Tick/Count))
system.cpu0.dcache.ReadReq.avgMshrMissLatency::total 88397.375038                       # average ReadReq mshr miss latency ((Tick/Count))
system.cpu0.dcache.SoftPFReq.hits::cpu0.data      5220776                       # number of SoftPFReq hits (Count)
system.cpu0.dcache.SoftPFReq.hits::total      5220776                       # number of SoftPFReq hits (Count)
system.cpu0.dcache.SoftPFReq.misses::cpu0.data       279048                       # number of SoftPFReq misses (Count)
system.cpu0.dcache.SoftPFReq.misses::total       279048                       # number of SoftPFReq misses (Count)
system.cpu0.dcache.SoftPFReq.accesses::cpu0.data      5499824                       # number of SoftPFReq accesses(hits+misses) (Count)
system.cpu0.dcache.SoftPFReq.accesses::total      5499824                       # number of SoftPFReq accesses(hits+misses) (Count)
system.cpu0.dcache.SoftPFReq.missRate::cpu0.data     0.050738                       # miss rate for SoftPFReq accesses (Ratio)
system.cpu0.dcache.SoftPFReq.missRate::total     0.050738                       # miss rate for SoftPFReq accesses (Ratio)
system.cpu0.dcache.SoftPFReq.mshrMisses::cpu0.data       249995                       # number of SoftPFReq MSHR misses (Count)
system.cpu0.dcache.SoftPFReq.mshrMisses::total       249995                       # number of SoftPFReq MSHR misses (Count)
system.cpu0.dcache.SoftPFReq.mshrMissLatency::cpu0.data  21404791750                       # number of SoftPFReq MSHR miss ticks (Tick)
system.cpu0.dcache.SoftPFReq.mshrMissLatency::total  21404791750                       # number of SoftPFReq MSHR miss ticks (Tick)
system.cpu0.dcache.SoftPFReq.mshrMissRate::cpu0.data     0.045455                       # mshr miss rate for SoftPFReq accesses (Ratio)
system.cpu0.dcache.SoftPFReq.mshrMissRate::total     0.045455                       # mshr miss rate for SoftPFReq accesses (Ratio)
system.cpu0.dcache.SoftPFReq.avgMshrMissLatency::cpu0.data 85620.879418                       # average SoftPFReq mshr miss latency ((Tick/Count))
system.cpu0.dcache.SoftPFReq.avgMshrMissLatency::total 85620.879418                       # average SoftPFReq mshr miss latency ((Tick/Count))
system.cpu0.dcache.WriteReq.hits::cpu0.data      8855115                       # number of WriteReq hits (Count)
system.cpu0.dcache.WriteReq.hits::total       8855115                       # number of WriteReq hits (Count)
system.cpu0.dcache.WriteReq.misses::cpu0.data      1188866                       # number of WriteReq misses (Count)
system.cpu0.dcache.WriteReq.misses::total      1188866                       # number of WriteReq misses (Count)
system.cpu0.dcache.WriteReq.missLatency::cpu0.data 100011142237                       # number of WriteReq miss ticks (Tick)
system.cpu0.dcache.WriteReq.missLatency::total 100011142237                       # number of WriteReq miss ticks (Tick)
system.cpu0.dcache.WriteReq.accesses::cpu0.data     10043981                       # number of WriteReq accesses(hits+misses) (Count)
system.cpu0.dcache.WriteReq.accesses::total     10043981                       # number of WriteReq accesses(hits+misses) (Count)
system.cpu0.dcache.WriteReq.missRate::cpu0.data     0.118366                       # miss rate for WriteReq accesses (Ratio)
system.cpu0.dcache.WriteReq.missRate::total     0.118366                       # miss rate for WriteReq accesses (Ratio)
system.cpu0.dcache.WriteReq.avgMissLatency::cpu0.data 84123.141075                       # average WriteReq miss latency ((Tick/Count))
system.cpu0.dcache.WriteReq.avgMissLatency::total 84123.141075                       # average WriteReq miss latency ((Tick/Count))
system.cpu0.dcache.WriteReq.mshrHits::cpu0.data            6                       # number of WriteReq MSHR hits (Count)
system.cpu0.dcache.WriteReq.mshrHits::total            6                       # number of WriteReq MSHR hits (Count)
system.cpu0.dcache.WriteReq.mshrMisses::cpu0.data      1188860                       # number of WriteReq MSHR misses (Count)
system.cpu0.dcache.WriteReq.mshrMisses::total      1188860                       # number of WriteReq MSHR misses (Count)
system.cpu0.dcache.WriteReq.mshrMissLatency::cpu0.data  99416424987                       # number of WriteReq MSHR miss ticks (Tick)
system.cpu0.dcache.WriteReq.mshrMissLatency::total  99416424987                       # number of WriteReq MSHR miss ticks (Tick)
system.cpu0.dcache.WriteReq.mshrMissRate::cpu0.data     0.118365                       # mshr miss rate for WriteReq accesses (Ratio)
system.cpu0.dcache.WriteReq.mshrMissRate::total     0.118365                       # mshr miss rate for WriteReq accesses (Ratio)
system.cpu0.dcache.WriteReq.avgMshrMissLatency::cpu0.data 83623.324014                       # average WriteReq mshr miss latency ((Tick/Count))
system.cpu0.dcache.WriteReq.avgMshrMissLatency::total 83623.324014                       # average WriteReq mshr miss latency ((Tick/Count))
system.cpu0.dcache.power_state.pwrStateResidencyTicks::UNDEFINED 131694375750                       # Cumulative time (in ticks) in various power states (Tick)
system.cpu0.dcache.tags.tagsInUse         1023.538532                       # Average ticks per tags in use ((Tick/Count))
system.cpu0.dcache.tags.totalRefs            43801056                       # Total number of references to valid blocks. (Count)
system.cpu0.dcache.tags.sampledRefs           3130616                       # Sample count of references to valid blocks. (Count)
system.cpu0.dcache.tags.avgRefs             13.991194                       # Average number of references to valid blocks. ((Count/Count))
system.cpu0.dcache.tags.warmupTick             169250                       # The tick when the warmup percentage was hit. (Tick)
system.cpu0.dcache.tags.occupancies::cpu0.data  1023.538532                       # Average occupied blocks per tick, per requestor ((Count/Tick))
system.cpu0.dcache.tags.avgOccs::cpu0.data     0.999549                       # Average percentage of cache occupancy ((Ratio/Tick))
system.cpu0.dcache.tags.avgOccs::total       0.999549                       # Average percentage of cache occupancy ((Ratio/Tick))
system.cpu0.dcache.tags.occupanciesTaskId::1024         1024                       # Occupied blocks per task id (Count)
system.cpu0.dcache.tags.ageTaskId_1024::0          130                       # Occupied blocks per task id, per block age (Count)
system.cpu0.dcache.tags.ageTaskId_1024::1          893                       # Occupied blocks per task id, per block age (Count)
system.cpu0.dcache.tags.ageTaskId_1024::4            1                       # Occupied blocks per task id, per block age (Count)
system.cpu0.dcache.tags.ratioOccsTaskId::1024            1                       # Ratio of occupied blocks and all blocks, per task id (Ratio)
system.cpu0.dcache.tags.tagAccesses         111577382                       # Number of tag accesses (Count)
system.cpu0.dcache.tags.dataAccesses        111577382                       # Number of data accesses (Count)
system.cpu0.dcache.tags.power_state.pwrStateResidencyTicks::UNDEFINED 131694375750                       # Cumulative time (in ticks) in various power states (Tick)
system.cpu0.decode.idleCycles                 6277315                       # Number of cycles decode is idle (Cycle)
system.cpu0.decode.blockedCycles            491748470                       # Number of cycles decode is blocked (Cycle)
system.cpu0.decode.runCycles                 20920160                       # Number of cycles decode is running (Cycle)
system.cpu0.decode.unblockCycles              6407281                       # Number of cycles decode is unblocking (Cycle)
system.cpu0.decode.squashCycles               1011401                       # Number of cycles decode is squashing (Cycle)
system.cpu0.decode.branchResolved             6523725                       # Number of times decode resolved a branch (Count)
system.cpu0.decode.branchMispred                 1353                       # Number of times decode detected a branch misprediction (Count)
system.cpu0.decode.decodedInsts             208471410                       # Number of instructions handled by decode (Count)
system.cpu0.decode.squashedInsts                 6493                       # Number of squashed instructions handled by decode (Count)
system.cpu0.dtb_walker_cache.blockedCycles::no_mshrs            0                       # number of cycles access was blocked (Cycle)
system.cpu0.dtb_walker_cache.blockedCycles::no_targets            0                       # number of cycles access was blocked (Cycle)
system.cpu0.dtb_walker_cache.blockedCauses::no_mshrs            0                       # number of times access was blocked (Count)
system.cpu0.dtb_walker_cache.blockedCauses::no_targets            0                       # number of times access was blocked (Count)
system.cpu0.dtb_walker_cache.avgBlocked::no_mshrs          nan                       # average number of cycles each access was blocked ((Cycle/Count))
system.cpu0.dtb_walker_cache.avgBlocked::no_targets          nan                       # average number of cycles each access was blocked ((Cycle/Count))
system.cpu0.dtb_walker_cache.replacements            0                       # number of replacements (Count)
system.cpu0.dtb_walker_cache.power_state.pwrStateResidencyTicks::UNDEFINED 131694375750                       # Cumulative time (in ticks) in various power states (Tick)
system.cpu0.dtb_walker_cache.tags.tagsInUse            0                       # Average ticks per tags in use ((Tick/Count))
system.cpu0.dtb_walker_cache.tags.totalRefs            0                       # Total number of references to valid blocks. (Count)
system.cpu0.dtb_walker_cache.tags.sampledRefs            0                       # Sample count of references to valid blocks. (Count)
system.cpu0.dtb_walker_cache.tags.avgRefs          nan                       # Average number of references to valid blocks. ((Count/Count))
system.cpu0.dtb_walker_cache.tags.warmupTick            0                       # The tick when the warmup percentage was hit. (Tick)
system.cpu0.dtb_walker_cache.tags.tagAccesses            0                       # Number of tag accesses (Count)
system.cpu0.dtb_walker_cache.tags.dataAccesses            0                       # Number of data accesses (Count)
system.cpu0.dtb_walker_cache.tags.power_state.pwrStateResidencyTicks::UNDEFINED 131694375750                       # Cumulative time (in ticks) in various power states (Tick)
system.cpu0.fetch.icacheStallCycles          15195984                       # Number of cycles fetch is stalled on an Icache miss (Cycle)
system.cpu0.fetch.insts                     114931322                       # Number of instructions fetch has processed (Count)
system.cpu0.fetch.branches                   10647233                       # Number of branches that fetch encountered (Count)
system.cpu0.fetch.predictedBranches           7551823                       # Number of branches that fetch has predicted taken (Count)
system.cpu0.fetch.cycles                    510147770                       # Number of cycles fetch has run and was not squashing or blocked (Cycle)
system.cpu0.fetch.squashCycles                2025472                       # Number of cycles fetch has spent squashing (Cycle)
system.cpu0.fetch.miscStallCycles                1054                       # Number of cycles fetch has spent waiting on interrupts, or bad addresses, or out of MSHRs (Cycle)
system.cpu0.fetch.pendingTrapStallCycles         7003                       # Number of stall cycles due to pending traps (Cycle)
system.cpu0.fetch.icacheWaitRetryStallCycles           80                       # Number of stall cycles due to full MSHR (Cycle)
system.cpu0.fetch.cacheLines                 14830575                       # Number of cache lines fetched (Count)
system.cpu0.fetch.icacheSquashes                 3349                       # Number of outstanding Icache misses that were squashed (Count)
system.cpu0.fetch.nisnDist::samples         526364627                       # Number of instructions fetched each cycle (Total) (Count)
system.cpu0.fetch.nisnDist::mean             0.471281                       # Number of instructions fetched each cycle (Total) (Count)
system.cpu0.fetch.nisnDist::stdev            1.777867                       # Number of instructions fetched each cycle (Total) (Count)
system.cpu0.fetch.nisnDist::underflows              0      0.00%      0.00% # Number of instructions fetched each cycle (Total) (Count)
system.cpu0.fetch.nisnDist::0               488309039     92.77%     92.77% # Number of instructions fetched each cycle (Total) (Count)
system.cpu0.fetch.nisnDist::1                  683521      0.13%     92.90% # Number of instructions fetched each cycle (Total) (Count)
system.cpu0.fetch.nisnDist::2                 2627339      0.50%     93.40% # Number of instructions fetched each cycle (Total) (Count)
system.cpu0.fetch.nisnDist::3                 2205481      0.42%     93.82% # Number of instructions fetched each cycle (Total) (Count)
system.cpu0.fetch.nisnDist::4                 1806305      0.34%     94.16% # Number of instructions fetched each cycle (Total) (Count)
system.cpu0.fetch.nisnDist::5                 1133339      0.22%     94.38% # Number of instructions fetched each cycle (Total) (Count)
system.cpu0.fetch.nisnDist::6                 5330074      1.01%     95.39% # Number of instructions fetched each cycle (Total) (Count)
system.cpu0.fetch.nisnDist::7                 3517354      0.67%     96.06% # Number of instructions fetched each cycle (Total) (Count)
system.cpu0.fetch.nisnDist::8                20752175      3.94%    100.00% # Number of instructions fetched each cycle (Total) (Count)
system.cpu0.fetch.nisnDist::overflows               0      0.00%    100.00% # Number of instructions fetched each cycle (Total) (Count)
system.cpu0.fetch.nisnDist::min_value               0                       # Number of instructions fetched each cycle (Total) (Count)
system.cpu0.fetch.nisnDist::max_value               8                       # Number of instructions fetched each cycle (Total) (Count)
system.cpu0.fetch.nisnDist::total           526364627                       # Number of instructions fetched each cycle (Total) (Count)
system.cpu0.fetch.branchRate                 0.020212                       # Number of branch fetches per cycle (Ratio)
system.cpu0.fetch.rate                       0.218178                       # Number of inst fetches per cycle ((Count/Cycle))
system.cpu0.icache.demandHits::cpu0.inst     14827145                       # number of demand (read+write) hits (Count)
system.cpu0.icache.demandHits::total         14827145                       # number of demand (read+write) hits (Count)
system.cpu0.icache.overallHits::cpu0.inst     14827145                       # number of overall hits (Count)
system.cpu0.icache.overallHits::total        14827145                       # number of overall hits (Count)
system.cpu0.icache.demandMisses::cpu0.inst         3430                       # number of demand (read+write) misses (Count)
system.cpu0.icache.demandMisses::total           3430                       # number of demand (read+write) misses (Count)
system.cpu0.icache.overallMisses::cpu0.inst         3430                       # number of overall misses (Count)
system.cpu0.icache.overallMisses::total          3430                       # number of overall misses (Count)
system.cpu0.icache.demandMissLatency::cpu0.inst    232049499                       # number of demand (read+write) miss ticks (Tick)
system.cpu0.icache.demandMissLatency::total    232049499                       # number of demand (read+write) miss ticks (Tick)
system.cpu0.icache.overallMissLatency::cpu0.inst    232049499                       # number of overall miss ticks (Tick)
system.cpu0.icache.overallMissLatency::total    232049499                       # number of overall miss ticks (Tick)
system.cpu0.icache.demandAccesses::cpu0.inst     14830575                       # number of demand (read+write) accesses (Count)
system.cpu0.icache.demandAccesses::total     14830575                       # number of demand (read+write) accesses (Count)
system.cpu0.icache.overallAccesses::cpu0.inst     14830575                       # number of overall (read+write) accesses (Count)
system.cpu0.icache.overallAccesses::total     14830575                       # number of overall (read+write) accesses (Count)
system.cpu0.icache.demandMissRate::cpu0.inst     0.000231                       # miss rate for demand accesses (Ratio)
system.cpu0.icache.demandMissRate::total     0.000231                       # miss rate for demand accesses (Ratio)
system.cpu0.icache.overallMissRate::cpu0.inst     0.000231                       # miss rate for overall accesses (Ratio)
system.cpu0.icache.overallMissRate::total     0.000231                       # miss rate for overall accesses (Ratio)
system.cpu0.icache.demandAvgMissLatency::cpu0.inst 67652.915160                       # average overall miss latency in ticks ((Tick/Count))
system.cpu0.icache.demandAvgMissLatency::total 67652.915160                       # average overall miss latency in ticks ((Tick/Count))
system.cpu0.icache.overallAvgMissLatency::cpu0.inst 67652.915160                       # average overall miss latency ((Tick/Count))
system.cpu0.icache.overallAvgMissLatency::total 67652.915160                       # average overall miss latency ((Tick/Count))
system.cpu0.icache.blockedCycles::no_mshrs          873                       # number of cycles access was blocked (Cycle)
system.cpu0.icache.blockedCycles::no_targets            0                       # number of cycles access was blocked (Cycle)
system.cpu0.icache.blockedCauses::no_mshrs           16                       # number of times access was blocked (Count)
system.cpu0.icache.blockedCauses::no_targets            0                       # number of times access was blocked (Count)
system.cpu0.icache.avgBlocked::no_mshrs     54.562500                       # average number of cycles each access was blocked ((Cycle/Count))
system.cpu0.icache.avgBlocked::no_targets          nan                       # average number of cycles each access was blocked ((Cycle/Count))
system.cpu0.icache.writebacks::writebacks         2166                       # number of writebacks (Count)
system.cpu0.icache.writebacks::total             2166                       # number of writebacks (Count)
system.cpu0.icache.demandMshrHits::cpu0.inst          739                       # number of demand (read+write) MSHR hits (Count)
system.cpu0.icache.demandMshrHits::total          739                       # number of demand (read+write) MSHR hits (Count)
system.cpu0.icache.overallMshrHits::cpu0.inst          739                       # number of overall MSHR hits (Count)
system.cpu0.icache.overallMshrHits::total          739                       # number of overall MSHR hits (Count)
system.cpu0.icache.demandMshrMisses::cpu0.inst         2691                       # number of demand (read+write) MSHR misses (Count)
system.cpu0.icache.demandMshrMisses::total         2691                       # number of demand (read+write) MSHR misses (Count)
system.cpu0.icache.overallMshrMisses::cpu0.inst         2691                       # number of overall MSHR misses (Count)
system.cpu0.icache.overallMshrMisses::total         2691                       # number of overall MSHR misses (Count)
system.cpu0.icache.demandMshrMissLatency::cpu0.inst    183220250                       # number of demand (read+write) MSHR miss ticks (Tick)
system.cpu0.icache.demandMshrMissLatency::total    183220250                       # number of demand (read+write) MSHR miss ticks (Tick)
system.cpu0.icache.overallMshrMissLatency::cpu0.inst    183220250                       # number of overall MSHR miss ticks (Tick)
system.cpu0.icache.overallMshrMissLatency::total    183220250                       # number of overall MSHR miss ticks (Tick)
system.cpu0.icache.demandMshrMissRate::cpu0.inst     0.000181                       # mshr miss ratio for demand accesses (Ratio)
system.cpu0.icache.demandMshrMissRate::total     0.000181                       # mshr miss ratio for demand accesses (Ratio)
system.cpu0.icache.overallMshrMissRate::cpu0.inst     0.000181                       # mshr miss ratio for overall accesses (Ratio)
system.cpu0.icache.overallMshrMissRate::total     0.000181                       # mshr miss ratio for overall accesses (Ratio)
system.cpu0.icache.demandAvgMshrMissLatency::cpu0.inst 68086.306206                       # average overall mshr miss latency ((Tick/Count))
system.cpu0.icache.demandAvgMshrMissLatency::total 68086.306206                       # average overall mshr miss latency ((Tick/Count))
system.cpu0.icache.overallAvgMshrMissLatency::cpu0.inst 68086.306206                       # average overall mshr miss latency ((Tick/Count))
system.cpu0.icache.overallAvgMshrMissLatency::total 68086.306206                       # average overall mshr miss latency ((Tick/Count))
system.cpu0.icache.replacements                  2166                       # number of replacements (Count)
system.cpu0.icache.ReadReq.hits::cpu0.inst     14827145                       # number of ReadReq hits (Count)
system.cpu0.icache.ReadReq.hits::total       14827145                       # number of ReadReq hits (Count)
system.cpu0.icache.ReadReq.misses::cpu0.inst         3430                       # number of ReadReq misses (Count)
system.cpu0.icache.ReadReq.misses::total         3430                       # number of ReadReq misses (Count)
system.cpu0.icache.ReadReq.missLatency::cpu0.inst    232049499                       # number of ReadReq miss ticks (Tick)
system.cpu0.icache.ReadReq.missLatency::total    232049499                       # number of ReadReq miss ticks (Tick)
system.cpu0.icache.ReadReq.accesses::cpu0.inst     14830575                       # number of ReadReq accesses(hits+misses) (Count)
system.cpu0.icache.ReadReq.accesses::total     14830575                       # number of ReadReq accesses(hits+misses) (Count)
system.cpu0.icache.ReadReq.missRate::cpu0.inst     0.000231                       # miss rate for ReadReq accesses (Ratio)
system.cpu0.icache.ReadReq.missRate::total     0.000231                       # miss rate for ReadReq accesses (Ratio)
system.cpu0.icache.ReadReq.avgMissLatency::cpu0.inst 67652.915160                       # average ReadReq miss latency ((Tick/Count))
system.cpu0.icache.ReadReq.avgMissLatency::total 67652.915160                       # average ReadReq miss latency ((Tick/Count))
system.cpu0.icache.ReadReq.mshrHits::cpu0.inst          739                       # number of ReadReq MSHR hits (Count)
system.cpu0.icache.ReadReq.mshrHits::total          739                       # number of ReadReq MSHR hits (Count)
system.cpu0.icache.ReadReq.mshrMisses::cpu0.inst         2691                       # number of ReadReq MSHR misses (Count)
system.cpu0.icache.ReadReq.mshrMisses::total         2691                       # number of ReadReq MSHR misses (Count)
system.cpu0.icache.ReadReq.mshrMissLatency::cpu0.inst    183220250                       # number of ReadReq MSHR miss ticks (Tick)
system.cpu0.icache.ReadReq.mshrMissLatency::total    183220250                       # number of ReadReq MSHR miss ticks (Tick)
system.cpu0.icache.ReadReq.mshrMissRate::cpu0.inst     0.000181                       # mshr miss rate for ReadReq accesses (Ratio)
system.cpu0.icache.ReadReq.mshrMissRate::total     0.000181                       # mshr miss rate for ReadReq accesses (Ratio)
system.cpu0.icache.ReadReq.avgMshrMissLatency::cpu0.inst 68086.306206                       # average ReadReq mshr miss latency ((Tick/Count))
system.cpu0.icache.ReadReq.avgMshrMissLatency::total 68086.306206                       # average ReadReq mshr miss latency ((Tick/Count))
system.cpu0.icache.power_state.pwrStateResidencyTicks::UNDEFINED 131694375750                       # Cumulative time (in ticks) in various power states (Tick)
system.cpu0.icache.tags.tagsInUse          509.383442                       # Average ticks per tags in use ((Tick/Count))
system.cpu0.icache.tags.totalRefs            14829835                       # Total number of references to valid blocks. (Count)
system.cpu0.icache.tags.sampledRefs              2690                       # Sample count of references to valid blocks. (Count)
system.cpu0.icache.tags.avgRefs           5512.949814                       # Average number of references to valid blocks. ((Count/Count))
system.cpu0.icache.tags.warmupTick              85250                       # The tick when the warmup percentage was hit. (Tick)
system.cpu0.icache.tags.occupancies::cpu0.inst   509.383442                       # Average occupied blocks per tick, per requestor ((Count/Tick))
system.cpu0.icache.tags.avgOccs::cpu0.inst     0.994890                       # Average percentage of cache occupancy ((Ratio/Tick))
system.cpu0.icache.tags.avgOccs::total       0.994890                       # Average percentage of cache occupancy ((Ratio/Tick))
system.cpu0.icache.tags.occupanciesTaskId::1024          512                       # Occupied blocks per task id (Count)
system.cpu0.icache.tags.ageTaskId_1024::0          104                       # Occupied blocks per task id, per block age (Count)
system.cpu0.icache.tags.ageTaskId_1024::1           71                       # Occupied blocks per task id, per block age (Count)
system.cpu0.icache.tags.ageTaskId_1024::4          337                       # Occupied blocks per task id, per block age (Count)
system.cpu0.icache.tags.ratioOccsTaskId::1024            1                       # Ratio of occupied blocks and all blocks, per task id (Ratio)
system.cpu0.icache.tags.tagAccesses          29663840                       # Number of tag accesses (Count)
system.cpu0.icache.tags.dataAccesses         29663840                       # Number of data accesses (Count)
system.cpu0.icache.tags.power_state.pwrStateResidencyTicks::UNDEFINED 131694375750                       # Cumulative time (in ticks) in various power states (Tick)
system.cpu0.iew.idleCycles                          0                       # Number of cycles IEW is idle (Cycle)
system.cpu0.iew.squashCycles                  1011401                       # Number of cycles IEW is squashing (Cycle)
system.cpu0.iew.blockCycles                  46165205                       # Number of cycles IEW is blocking (Cycle)
system.cpu0.iew.unblockCycles                55402421                       # Number of cycles IEW is unblocking (Cycle)
system.cpu0.iew.dispatchedInsts             197863982                       # Number of instructions dispatched to IQ (Count)
system.cpu0.iew.dispSquashedInsts                1089                       # Number of squashed instructions skipped by dispatch (Count)
system.cpu0.iew.dispLoadInsts                44215365                       # Number of dispatched load instructions (Count)
system.cpu0.iew.dispStoreInsts               43065882                       # Number of dispatched store instructions (Count)
system.cpu0.iew.dispNonSpecInsts                  525                       # Number of dispatched non-speculative instructions (Count)
system.cpu0.iew.iqFullEvents                     2356                       # Number of times the IQ has become full, causing a stall (Count)
system.cpu0.iew.lsqFullEvents                55451836                       # Number of times the LSQ has become full, causing a stall (Count)
system.cpu0.iew.memOrderViolationEvents           351                       # Number of memory order violations (Count)
system.cpu0.iew.predictedTakenIncorrect          2734                       # Number of branches that were predicted taken incorrectly (Count)
system.cpu0.iew.predictedNotTakenIncorrect         7272                       # Number of branches that were predicted not taken incorrectly (Count)
system.cpu0.iew.branchMispredicts               10006                       # Number of branch mispredicts detected at execute (Count)
system.cpu0.iew.instsToCommit               197704400                       # Cumulative count of insts sent to commit (Count)
[...]
system.mem_ctrls1.dram.perBankWrBursts::13       156298                       # Per bank write bursts (Count)
system.mem_ctrls1.dram.perBankWrBursts::14       156528                       # Per bank write bursts (Count)
system.mem_ctrls1.dram.perBankWrBursts::15       156540                       # Per bank write bursts (Count)
system.mem_ctrls1.dram.totQLat           135066172562                       # Total ticks spent queuing (Tick)
system.mem_ctrls1.dram.totBusLat          11762846000                       # Total ticks spent in databus transfers (Tick)
system.mem_ctrls1.dram.totMemAccLat      252694632562                       # Total ticks spent from burst creation until serviced by the DRAM (Tick)
system.mem_ctrls1.dram.avgQLat               22964.88                       # Average queueing delay per DRAM burst ((Tick/Count))
system.mem_ctrls1.dram.avgBusLat              2000.00                       # Average bus latency per DRAM burst ((Tick/Count))
system.mem_ctrls1.dram.avgMemAccLat          42964.88                       # Average memory access latency per DRAM burst ((Tick/Count))
system.mem_ctrls1.dram.readRowHits            2940320                       # Number of row buffer hits during reads (Count)
system.mem_ctrls1.dram.writeRowHits           2152034                       # Number of row buffer hits during writes (Count)
system.mem_ctrls1.dram.readRowHitRate           49.99                       # Row buffer hit rate for reads (Ratio)
system.mem_ctrls1.dram.writeRowHitRate          86.04                       # Row buffer hit rate for writes (Ratio)
system.mem_ctrls1.dram.bytesPerActivate::samples      3290332                       # Bytes accessed per row activation (Byte)
system.mem_ctrls1.dram.bytesPerActivate::mean    81.525497                       # Bytes accessed per row activation (Byte)
system.mem_ctrls1.dram.bytesPerActivate::gmean    71.868371                       # Bytes accessed per row activation (Byte)
system.mem_ctrls1.dram.bytesPerActivate::stdev    62.330201                       # Bytes accessed per row activation (Byte)
system.mem_ctrls1.dram.bytesPerActivate::0-63        24165      0.73%      0.73% # Bytes accessed per row activation (Byte)
system.mem_ctrls1.dram.bytesPerActivate::64-127      2987129     90.79%     91.52% # Bytes accessed per row activation (Byte)
system.mem_ctrls1.dram.bytesPerActivate::128-191        36226      1.10%     92.62% # Bytes accessed per row activation (Byte)
system.mem_ctrls1.dram.bytesPerActivate::192-255        52222      1.59%     94.21% # Bytes accessed per row activation (Byte)
system.mem_ctrls1.dram.bytesPerActivate::256-319        99643      3.03%     97.24% # Bytes accessed per row activation (Byte)
system.mem_ctrls1.dram.bytesPerActivate::320-383        73473      2.23%     99.47% # Bytes accessed per row activation (Byte)
system.mem_ctrls1.dram.bytesPerActivate::384-447         6909      0.21%     99.68% # Bytes accessed per row activation (Byte)
system.mem_ctrls1.dram.bytesPerActivate::448-511         4058      0.12%     99.80% # Bytes accessed per row activation (Byte)
system.mem_ctrls1.dram.bytesPerActivate::512-575         6507      0.20%    100.00% # Bytes accessed per row activation (Byte)
system.mem_ctrls1.dram.bytesPerActivate::total      3290332                       # Bytes accessed per row activation (Byte)
system.mem_ctrls1.dram.bytesRead            188205536                       # Total bytes read (Byte)
system.mem_ctrls1.dram.bytesWritten          80040416                       # Total bytes written (Byte)
system.mem_ctrls1.dram.avgRdBW            1429.108380                       # Average DRAM read bandwidth in MiBytes/s ((Byte/Second))
system.mem_ctrls1.dram.avgWrBW             607.773988                       # Average DRAM write bandwidth in MiBytes/s ((Byte/Second))
system.mem_ctrls1.dram.peakBW                16000.00                       # Theoretical peak bandwidth in MiByte/s ((Byte/Second))
system.mem_ctrls1.dram.busUtil                  12.73                       # Data bus utilization in percentage (Ratio)
system.mem_ctrls1.dram.busUtilRead               8.93                       # Data bus utilization in percentage for reads (Ratio)
system.mem_ctrls1.dram.busUtilWrite              3.80                       # Data bus utilization in percentage for writes (Ratio)
system.mem_ctrls1.dram.pageHitRate              60.75                       # Row buffer hit rate, read and write combined (Ratio)
system.mem_ctrls1.dram.power_state.pwrStateResidencyTicks::UNDEFINED 131694375750                       # Cumulative time (in ticks) in various power states (Tick)
system.mem_ctrls1.dram.rank0.actEnergy              0                       # Energy for activate commands per rank (pJ) (Joule)
system.mem_ctrls1.dram.rank0.preEnergy              0                       # Energy for precharge commands per rank (pJ) (Joule)
system.mem_ctrls1.dram.rank0.readEnergy             0                       # Energy for read commands per rank (pJ) (Joule)
system.mem_ctrls1.dram.rank0.writeEnergy            0                       # Energy for write commands per rank (pJ) (Joule)
system.mem_ctrls1.dram.rank0.refreshEnergy            0                       # Energy for refresh commands per rank (pJ) (Joule)
system.mem_ctrls1.dram.rank0.actBackEnergy            0                       # Energy for active background per rank (pJ) (Joule)
system.mem_ctrls1.dram.rank0.preBackEnergy            0                       # Energy for precharge background per rank (pJ) (Joule)
system.mem_ctrls1.dram.rank0.actPowerDownEnergy            0                       # Energy for active power-down per rank (pJ) (Joule)
system.mem_ctrls1.dram.rank0.prePowerDownEnergy            0                       # Energy for precharge power-down per rank (pJ) (Joule)
system.mem_ctrls1.dram.rank0.selfRefreshEnergy            0                       # Energy for self refresh per rank (pJ) (Joule)
system.mem_ctrls1.dram.rank0.totalEnergy            0                       # Total energy per rank (pJ) (Joule)
system.mem_ctrls1.dram.rank0.averagePower            0                       # Core power per rank (mW) (Watt)
system.mem_ctrls1.dram.rank0.totalIdleTime            0                       # Total Idle time Per DRAM Rank (Tick)
system.mem_ctrls1.dram.rank0.pwrStateTime::IDLE  44518124026                       # Time in different power states (Tick)
system.mem_ctrls1.dram.rank0.pwrStateTime::REF   7455580000                       # Time in different power states (Tick)
system.mem_ctrls1.dram.rank0.pwrStateTime::SREF            0                       # Time in different power states (Tick)
system.mem_ctrls1.dram.rank0.pwrStateTime::PRE_PDN            0                       # Time in different power states (Tick)
system.mem_ctrls1.dram.rank0.pwrStateTime::ACT  79720671724                       # Time in different power states (Tick)
system.mem_ctrls1.dram.rank0.pwrStateTime::ACT_PDN            0                       # Time in different power states (Tick)
system.mem_ctrls1.power_state.pwrStateResidencyTicks::UNDEFINED 131694375750                       # Cumulative time (in ticks) in various power states (Tick)
system.membus.transDist::ReadResp             3505462                       # Transaction distribution (Count)
system.membus.transDist::WritebackDirty       2501491                       # Transaction distribution (Count)
system.membus.transDist::CleanEvict           3345925                       # Transaction distribution (Count)
system.membus.transDist::UpgradeReq                49                       # Transaction distribution (Count)
system.membus.transDist::ReadExReq            2376208                       # Transaction distribution (Count)
system.membus.transDist::ReadExResp           2376208                       # Transaction distribution (Count)
system.membus.transDist::ReadSharedReq        3505462                       # Transaction distribution (Count)
system.membus.pktCount_system.l2.mem_side_port::system.mem_ctrls0.port      8805743                       # Packet count per connected requestor and responder (Count)
system.membus.pktCount_system.l2.mem_side_port::system.mem_ctrls1.port      8805062                       # Packet count per connected requestor and responder (Count)
system.membus.pktCount_system.l2.mem_side_port::total     17610805                       # Packet count per connected requestor and responder (Count)
system.membus.pktCount::total                17610805                       # Packet count per connected requestor and responder (Count)
system.membus.pktSize_system.l2.mem_side_port::system.mem_ctrls0.port    268274816                       # Cumulative packet size per connected requestor and responder (Byte)
system.membus.pktSize_system.l2.mem_side_port::system.mem_ctrls1.port    268247488                       # Cumulative packet size per connected requestor and responder (Byte)
system.membus.pktSize_system.l2.mem_side_port::total    536522304                       # Cumulative packet size per connected requestor and responder (Byte)
system.membus.pktSize::total                536522304                       # Cumulative packet size per connected requestor and responder (Byte)
system.membus.snoops                               48                       # Total snoops (Count)
system.membus.snoopTraffic                          0                       # Total snoop traffic (Byte)
system.membus.snoopFanout::samples            5881719                       # Request fanout histogram (Count)
system.membus.snoopFanout::mean                     0                       # Request fanout histogram (Count)
system.membus.snoopFanout::stdev                    0                       # Request fanout histogram (Count)
system.membus.snoopFanout::underflows               0      0.00%      0.00% # Request fanout histogram (Count)
system.membus.snoopFanout::0                  5881719    100.00%    100.00% # Request fanout histogram (Count)
system.membus.snoopFanout::1                        0      0.00%    100.00% # Request fanout histogram (Count)
system.membus.snoopFanout::overflows                0      0.00%    100.00% # Request fanout histogram (Count)
system.membus.snoopFanout::min_value                0                       # Request fanout histogram (Count)
system.membus.snoopFanout::max_value                0                       # Request fanout histogram (Count)
system.membus.snoopFanout::total              5881719                       # Request fanout histogram (Count)
system.membus.power_state.pwrStateResidencyTicks::UNDEFINED 131694375750                       # Cumulative time (in ticks) in various power states (Tick)
system.membus.reqLayer4.occupancy         11573236553                       # Layer occupancy (ticks) (Tick)
system.membus.reqLayer4.utilization               0.1                       # Layer utilization (Ratio)
system.membus.reqLayer5.occupancy         11578390426                       # Layer occupancy (ticks) (Tick)
system.membus.reqLayer5.utilization               0.1                       # Layer utilization (Ratio)
system.membus.respLayer1.occupancy        29973617121                       # Layer occupancy (ticks) (Tick)
system.membus.respLayer1.utilization              0.2                       # Layer utilization (Ratio)
system.membus.snoop_filter.totRequests       11729135                       # Total number of requests made to the snoop filter. (Count)
system.membus.snoop_filter.hitSingleRequests      5848393                       # Number of requests hitting in the snoop filter with a single holder of the requested data. (Count)
system.membus.snoop_filter.hitMultiRequests            0                       # Number of requests hitting in the snoop filter with multiple (>1) holders of the requested data. (Count)
system.membus.snoop_filter.totSnoops                0                       # Total number of snoops made to the snoop filter. (Count)
system.membus.snoop_filter.hitSingleSnoops            0                       # Number of snoops hitting in the snoop filter with a single holder of the requested data. (Count)
system.membus.snoop_filter.hitMultiSnoops            0                       # Number of snoops hitting in the snoop filter with multiple (>1) holders of the requested data. (Count)
system.tol2bus.transDist::ReadResp            3507572                       # Transaction distribution (Count)
system.tol2bus.transDist::WritebackDirty      5003531                       # Transaction distribution (Count)
system.tol2bus.transDist::WritebackClean         2170                       # Transaction distribution (Count)
system.tol2bus.transDist::CleanEvict          6724586                       # Transaction distribution (Count)
system.tol2bus.transDist::UpgradeReq              118                       # Transaction distribution (Count)
system.tol2bus.transDist::UpgradeResp             118                       # Transaction distribution (Count)
system.tol2bus.transDist::ReadExReq           2376431                       # Transaction distribution (Count)
system.tol2bus.transDist::ReadExResp          2376431                       # Transaction distribution (Count)
system.tol2bus.transDist::ReadCleanReq           2835                       # Transaction distribution (Count)
system.tol2bus.transDist::ReadSharedReq       3504738                       # Transaction distribution (Count)
system.tol2bus.pktCount_system.cpu0.icache.mem_side_port::system.l2.cpu_side_port         7538                       # Packet count per connected requestor and responder (Count)
system.tol2bus.pktCount_system.cpu0.dcache.mem_side_port::system.l2.cpu_side_port      9390675                       # Packet count per connected requestor and responder (Count)
system.tol2bus.pktCount_system.cpu1.icache.mem_side_port::system.l2.cpu_side_port          287                       # Packet count per connected requestor and responder (Count)
system.tol2bus.pktCount_system.cpu1.dcache.mem_side_port::system.l2.cpu_side_port      8250334                       # Packet count per connected requestor and responder (Count)
system.tol2bus.pktCount::total               17648834                       # Packet count per connected requestor and responder (Count)
system.tol2bus.pktSize_system.cpu0.icache.mem_side_port::system.l2.cpu_side_port       310208                       # Cumulative packet size per connected requestor and responder (Byte)
system.tol2bus.pktSize_system.cpu0.dcache.mem_side_port::system.l2.cpu_side_port    280478976                       # Cumulative packet size per connected requestor and responder (Byte)
system.tol2bus.pktSize_system.cpu1.icache.mem_side_port::system.l2.cpu_side_port         9152                       # Cumulative packet size per connected requestor and responder (Byte)
system.tol2bus.pktSize_system.cpu1.dcache.mem_side_port::system.l2.cpu_side_port    256019392                       # Cumulative packet size per connected requestor and responder (Byte)
system.tol2bus.pktSize::total               536817728                       # Cumulative packet size per connected requestor and responder (Byte)
system.tol2bus.snoops                         5849696                       # Total snoops (Count)
system.tol2bus.snoopTraffic                 160123328                       # Total snoop traffic (Byte)
system.tol2bus.snoopFanout::samples          11733334                       # Request fanout histogram (Count)
system.tol2bus.snoopFanout::mean             0.000347                       # Request fanout histogram (Count)
system.tol2bus.snoopFanout::stdev            0.019180                       # Request fanout histogram (Count)
system.tol2bus.snoopFanout::underflows              0      0.00%      0.00% # Request fanout histogram (Count)
system.tol2bus.snoopFanout::0                11729382     99.97%     99.97% # Request fanout histogram (Count)
system.tol2bus.snoopFanout::1                    3830      0.03%    100.00% # Request fanout histogram (Count)
system.tol2bus.snoopFanout::2                     122      0.00%    100.00% # Request fanout histogram (Count)
system.tol2bus.snoopFanout::3                       0      0.00%    100.00% # Request fanout histogram (Count)
system.tol2bus.snoopFanout::4                       0      0.00%    100.00% # Request fanout histogram (Count)
system.tol2bus.snoopFanout::5                       0      0.00%    100.00% # Request fanout histogram (Count)
system.tol2bus.snoopFanout::6                       0      0.00%    100.00% # Request fanout histogram (Count)
system.tol2bus.snoopFanout::7                       0      0.00%    100.00% # Request fanout histogram (Count)
system.tol2bus.snoopFanout::8                       0      0.00%    100.00% # Request fanout histogram (Count)
system.tol2bus.snoopFanout::overflows               0      0.00%    100.00% # Request fanout histogram (Count)
system.tol2bus.snoopFanout::min_value               0                       # Request fanout histogram (Count)
system.tol2bus.snoopFanout::max_value               2                       # Request fanout histogram (Count)
system.tol2bus.snoopFanout::total            11733334                       # Request fanout histogram (Count)
system.tol2bus.power_state.pwrStateResidencyTicks::UNDEFINED 131694375750                       # Cumulative time (in ticks) in various power states (Tick)
system.tol2bus.reqLayer0.occupancy         4193404748                       # Layer occupancy (ticks) (Tick)
system.tol2bus.reqLayer0.utilization              0.0                       # Layer utilization (Ratio)
system.tol2bus.respLayer0.occupancy           2019492                       # Layer occupancy (ticks) (Tick)
system.tol2bus.respLayer0.utilization             0.0                       # Layer utilization (Ratio)
system.tol2bus.respLayer1.occupancy        2347983243                       # Layer occupancy (ticks) (Tick)
system.tol2bus.respLayer1.utilization             0.0                       # Layer utilization (Ratio)
system.tol2bus.respLayer4.occupancy            110739                       # Layer occupancy (ticks) (Tick)
system.tol2bus.respLayer4.utilization             0.0                       # Layer utilization (Ratio)
system.tol2bus.respLayer5.occupancy        2062925997                       # Layer occupancy (ticks) (Tick)
system.tol2bus.respLayer5.utilization             0.0                       # Layer utilization (Ratio)
system.tol2bus.snoop_filter.totRequests      11765197                       # Total number of requests made to the snoop filter. (Count)
system.tol2bus.snoop_filter.hitSingleRequests      5882043                       # Number of requests hitting in the snoop filter with a single holder of the requested data. (Count)
system.tol2bus.snoop_filter.hitMultiRequests         1044                       # Number of requests hitting in the snoop filter with multiple (>1) holders of the requested data. (Count)
system.tol2bus.snoop_filter.totSnoops            1988                       # Total number of snoops made to the snoop filter. (Count)
system.tol2bus.snoop_filter.hitSingleSnoops         1881                       # Number of snoops hitting in the snoop filter with a single holder of the requested data. (Count)
system.tol2bus.snoop_filter.hitMultiSnoops          107                       # Number of snoops hitting in the snoop filter with multiple (>1) holders of the requested data. (Count)
system.voltage_domain.voltage                       1                       # Voltage in Volts (Volt)
system.workload.inst.arm                            0                       # number of arm instructions executed (Count)
system.workload.inst.quiesce                        0                       # number of quiesce instructions executed (Count)

---------- End Simulation Statistics   ----------
