
---------- Begin Simulation Statistics ----------
simSeconds                                  17.051695                       # Number of seconds simulated (Second)
simTicks                                 17051695399000                       # Number of ticks simulated (Tick)
finalTick                                17051695399000                       # Number of ticks from beginning of simulation (restored from checkpoints and never reset) (Tick)
simFreq                                  1000000000000                       # The number of ticks per simulated second ((Tick/Second))
hostSeconds                                   1618.17                       # Real time elapsed on the host (Second)
hostTickRate                              10537649666                       # The number of ticks simulated per host second (ticks/s) ((Tick/Second))
hostMemory                                     673284                       # Number of bytes of host memory used (Byte)
simInsts                                    135613750                       # Number of instructions simulated (Count)
simOps                                      272069860                       # Number of ops (including micro ops) simulated (Count)
hostInstRate                                    83807                       # Simulator instruction rate (inst/s) ((Count/Second))
hostOpRate                                     168134                       # Simulator op (including micro ops) rate (op/s) ((Count/Second))
system.clk_domain.clock                          1000                       # Clock period in ticks (Tick)
system.cpu.numCycles                      68206781596                       # Number of cpu cycles simulated (Cycle)
system.cpu.numWorkItemsStarted                      0                       # Number of work items this cpu started (Count)
system.cpu.numWorkItemsCompleted                    0                       # Number of work items this cpu completed (Count)
system.cpu.exec_context.thread_0.numInsts    135613750                       # Number of instructions committed (Count)
system.cpu.exec_context.thread_0.numOps     272069860                       # Number of ops (including micro ops) committed (Count)
system.cpu.exec_context.thread_0.numIntAluAccesses    218060503                       # Number of integer alu accesses (Count)
system.cpu.exec_context.thread_0.numFpAluAccesses    119010447                       # Number of float alu accesses (Count)
system.cpu.exec_context.thread_0.numVecAluAccesses            0                       # Number of vector alu accesses (Count)
system.cpu.exec_context.thread_0.numCallsReturns         3874                       # Number of times a function call or return occured (Count)
system.cpu.exec_context.thread_0.numCondCtrlInsts     21669165                       # Number of instructions that are conditional controls (Count)
system.cpu.exec_context.thread_0.numIntInsts    218060503                       # Number of integer instructions (Count)
system.cpu.exec_context.thread_0.numFpInsts    119010447                       # Number of float instructions (Count)
system.cpu.exec_context.thread_0.numVecInsts            0                       # Number of vector instructions (Count)
system.cpu.exec_context.thread_0.numIntRegReads    240569067                       # Number of times the integer registers were read (Count)
system.cpu.exec_context.thread_0.numIntRegWrites    107945621                       # Number of times the integer registers were written (Count)
system.cpu.exec_context.thread_0.numFpRegReads    130014724                       # Number of times the floating registers were read (Count)
system.cpu.exec_context.thread_0.numFpRegWrites     93007838                       # Number of times the floating registers were written (Count)
system.cpu.exec_context.thread_0.numVecRegReads            0                       # Number of times the vector registers were read (Count)
system.cpu.exec_context.thread_0.numVecRegWrites            0                       # Number of times the vector registers were written (Count)
system.cpu.exec_context.thread_0.numVecPredRegReads            0                       # Number of times the predicate registers were read (Count)
system.cpu.exec_context.thread_0.numVecPredRegWrites            0                       # Number of times the predicate registers were written (Count)
system.cpu.exec_context.thread_0.numCCRegReads    114401750                       # Number of times the CC registers were read (Count)
system.cpu.exec_context.thread_0.numCCRegWrites     83172597                       # Number of times the CC registers were written (Count)
system.cpu.exec_context.thread_0.numMiscRegReads    118181354                       # Number of times the Misc registers were read (Count)
system.cpu.exec_context.thread_0.numMiscRegWrites           18                       # Number of times the Misc registers were written (Count)
system.cpu.exec_context.thread_0.numMemRefs     69825434                       # Number of memory refs (Count)
system.cpu.exec_context.thread_0.numLoadInsts     43304620                       # Number of load instructions (Count)
system.cpu.exec_context.thread_0.numStoreInsts     26520814                       # Number of store instructions (Count)
system.cpu.exec_context.thread_0.numIdleCycles     0.003998                       # Number of idle cycles (Cycle)
system.cpu.exec_context.thread_0.numBusyCycles 68206781595.996002                       # Number of busy cycles (Cycle)
system.cpu.exec_context.thread_0.notIdleFraction     1.000000                       # Percentage of non-idle cycles (Ratio)
system.cpu.exec_context.thread_0.idleFraction     0.000000                       # Percentage of idle cycles (Ratio)
system.cpu.exec_context.thread_0.numBranches     21678798                       # Number of branches fetched (Count)
system.cpu.exec_context.thread_0.statExecutedInstType::No_OpClass      2502783      0.91%      0.91% # Class of executed instruction. (Count)
system.cpu.exec_context.thread_0.statExecutedInstType::IntAlu    158233959     57.63%     58.54% # Class of executed instruction. (Count)
system.cpu.exec_context.thread_0.statExecutedInstType::IntMult          202      0.00%     58.54% # Class of executed instruction. (Count)
system.cpu.exec_context.thread_0.statExecutedInstType::IntDiv         1570      0.00%     58.54% # Class of executed instruction. (Count)
system.cpu.exec_context.thread_0.statExecutedInstType::FloatAdd     14000588      5.10%     63.64% # Class of executed instruction. (Count)
system.cpu.exec_context.thread_0.statExecutedInstType::FloatCmp            0      0.00%     63.64% # Class of executed instruction. (Count)
system.cpu.exec_context.thread_0.statExecutedInstType::FloatCvt           32      0.00%     63.64% # Class of executed instruction. (Count)
system.cpu.exec_context.thread_0.statExecutedInstType::FloatMult            0      0.00%     63.64% # Class of executed instruction. (Count)
system.cpu.exec_context.thread_0.statExecutedInstType::FloatMultAcc            0      0.00%     63.64% # Class of executed instruction. (Count)
system.cpu.exec_context.thread_0.statExecutedInstType::FloatDiv            0      0.00%     63.64% # Class of executed instruction. (Count)
system.cpu.exec_context.thread_0.statExecutedInstType::FloatMisc            0      0.00%     63.64% # Class of executed instruction. (Count)
system.cpu.exec_context.thread_0.statExecutedInstType::FloatSqrt            0      0.00%     63.64% # Class of executed instruction. (Count)
system.cpu.exec_context.thread_0.statExecutedInstType::SimdAdd          340      0.00%     63.64% # Class of executed instruction. (Count)
system.cpu.exec_context.thread_0.statExecutedInstType::SimdAddAcc            0      0.00%     63.64% # Class of executed instruction. (Count)
system.cpu.exec_context.thread_0.statExecutedInstType::SimdAlu         1639      0.00%     63.64% # Class of executed instruction. (Count)
system.cpu.exec_context.thread_0.statExecutedInstType::SimdCmp            6      0.00%     63.64% # Class of executed instruction. (Count)
system.cpu.exec_context.thread_0.statExecutedInstType::SimdCvt         1234      0.00%     63.64% # Class of executed instruction. (Count)
system.cpu.exec_context.thread_0.statExecutedInstType::SimdMisc         1575      0.00%     63.64% # Class of executed instruction. (Count)
system.cpu.exec_context.thread_0.statExecutedInstType::SimdMult            0      0.00%     63.64% # Class of executed instruction. (Count)
system.cpu.exec_context.thread_0.statExecutedInstType::SimdMultAcc            0      0.00%     63.64% # Class of executed instruction. (Count)
system.cpu.exec_context.thread_0.statExecutedInstType::SimdShift           99      0.00%     63.64% # Class of executed instruction. (Count)
system.cpu.exec_context.thread_0.statExecutedInstType::SimdShiftAcc            0      0.00%     63.64% # Class of executed instruction. (Count)
system.cpu.exec_context.thread_0.statExecutedInstType::SimdDiv            0      0.00%     63.64% # Class of executed instruction. (Count)
system.cpu.exec_context.thread_0.statExecutedInstType::SimdSqrt            0      0.00%     63.64% # Class of executed instruction. (Count)
system.cpu.exec_context.thread_0.statExecutedInstType::SimdFloatAdd     17000168      6.19%     69.83% # Class of executed instruction. (Count)
system.cpu.exec_context.thread_0.statExecutedInstType::SimdFloatAlu            0      0.00%     69.83% # Class of executed instruction. (Count)
system.cpu.exec_context.thread_0.statExecutedInstType::SimdFloatCmp           32      0.00%     69.83% # Class of executed instruction. (Count)
system.cpu.exec_context.thread_0.statExecutedInstType::SimdFloatCvt      3000254      1.09%     70.93% # Class of executed instruction. (Count)
system.cpu.exec_context.thread_0.statExecutedInstType::SimdFloatDiv           11      0.00%     70.93% # Class of executed instruction. (Count)
system.cpu.exec_context.thread_0.statExecutedInstType::SimdFloatMisc            0      0.00%     70.93% # Class of executed instruction. (Count)
system.cpu.exec_context.thread_0.statExecutedInstType::SimdFloatMult     10000120      3.64%     74.57% # Class of executed instruction. (Count)
system.cpu.exec_context.thread_0.statExecutedInstType::SimdFloatMultAcc            0      0.00%     74.57% # Class of executed instruction. (Count)
system.cpu.exec_context.thread_0.statExecutedInstType::SimdFloatSqrt            0      0.00%     74.57% # Class of executed instruction. (Count)
system.cpu.exec_context.thread_0.statExecutedInstType::SimdReduceAdd            0      0.00%     74.57% # Class of executed instruction. (Count)
system.cpu.exec_context.thread_0.statExecutedInstType::SimdReduceAlu            0      0.00%     74.57% # Class of executed instruction. (Count)
system.cpu.exec_context.thread_0.statExecutedInstType::SimdReduceCmp            0      0.00%     74.57% # Class of executed instruction. (Count)
system.cpu.exec_context.thread_0.statExecutedInstType::SimdFloatReduceAdd            0      0.00%     74.57% # Class of executed instruction. (Count)
system.cpu.exec_context.thread_0.statExecutedInstType::SimdFloatReduceCmp            0      0.00%     74.57% # Class of executed instruction. (Count)
system.cpu.exec_context.thread_0.statExecutedInstType::SimdAes            0      0.00%     74.57% # Class of executed instruction. (Count)
system.cpu.exec_context.thread_0.statExecutedInstType::SimdAesMix            0      0.00%     74.57% # Class of executed instruction. (Count)
system.cpu.exec_context.thread_0.statExecutedInstType::SimdSha1Hash            0      0.00%     74.57% # Class of executed instruction. (Count)
system.cpu.exec_context.thread_0.statExecutedInstType::SimdSha1Hash2            0      0.00%     74.57% # Class of executed instruction. (Count)
system.cpu.exec_context.thread_0.statExecutedInstType::SimdSha256Hash            0      0.00%     74.57% # Class of executed instruction. (Count)
system.cpu.exec_context.thread_0.statExecutedInstType::SimdSha256Hash2            0      0.00%     74.57% # Class of executed instruction. (Count)
system.cpu.exec_context.thread_0.statExecutedInstType::SimdShaSigma2            0      0.00%     74.57% # Class of executed instruction. (Count)
system.cpu.exec_context.thread_0.statExecutedInstType::SimdShaSigma3            0      0.00%     74.57% # Class of executed instruction. (Count)
system.cpu.exec_context.thread_0.statExecutedInstType::SimdPredAlu            0      0.00%     74.57% # Class of executed instruction. (Count)
system.cpu.exec_context.thread_0.statExecutedInstType::MemRead      1302564      0.47%     75.04% # Class of executed instruction. (Count)
system.cpu.exec_context.thread_0.statExecutedInstType::MemWrite      3519136      1.28%     76.33% # Class of executed instruction. (Count)
system.cpu.exec_context.thread_0.statExecutedInstType::FloatMemRead     42002056     15.30%     91.62% # Class of executed instruction. (Count)
system.cpu.exec_context.thread_0.statExecutedInstType::FloatMemWrite     23001678      8.38%    100.00% # Class of executed instruction. (Count)
system.cpu.exec_context.thread_0.statExecutedInstType::IprAccess            0      0.00%    100.00% # Class of executed instruction. (Count)
system.cpu.exec_context.thread_0.statExecutedInstType::InstPrefetch            0      0.00%    100.00% # Class of executed instruction. (Count)
system.cpu.exec_context.thread_0.statExecutedInstType::total    274570046                       # Class of executed instruction. (Count)
system.cpu.interrupts.clk_domain.clock           4000                       # Clock period in ticks (Tick)
system.cpu.mmu.dtb.rdAccesses                43304659                       # TLB accesses on read requests (Count)
system.cpu.mmu.dtb.wrAccesses                26520836                       # TLB accesses on write requests (Count)
system.cpu.mmu.dtb.rdMisses                     66687                       # TLB misses on read requests (Count)
system.cpu.mmu.dtb.wrMisses                     44988                       # TLB misses on write requests (Count)
system.cpu.mmu.dtb.walker.power_state.pwrStateResidencyTicks::UNDEFINED 17051695399000                       # Cumulative time (in ticks) in various power states (Tick)
system.cpu.mmu.itb.rdAccesses                       0                       # TLB accesses on read requests (Count)
system.cpu.mmu.itb.wrAccesses               209812007                       # TLB accesses on write requests (Count)
system.cpu.mmu.itb.rdMisses                         0                       # TLB misses on read requests (Count)
system.cpu.mmu.itb.wrMisses                       175                       # TLB misses on write requests (Count)
system.cpu.mmu.itb.walker.power_state.pwrStateResidencyTicks::UNDEFINED 17051695399000                       # Cumulative time (in ticks) in various power states (Tick)
system.cpu.power_state.pwrStateResidencyTicks::ON 17051695399000                       # Cumulative time (in ticks) in various power states (Tick)
system.cpu.thread_0.numInsts                        0                       # Number of Instructions committed (Count)
system.cpu.thread_0.numOps                          0                       # Number of Ops committed (Count)
system.cpu.thread_0.numMemRefs                      0                       # Number of Memory References (Count)
system.cpu.workload.numSyscalls                   145                       # Number of system calls (Count)
system.cpu_clk_domain.clock                       250                       # Clock period in ticks (Tick)
system.cpu_voltage_domain.voltage                   1                       # Voltage in Volts (Volt)
system.mem_ctrls0.avgPriority_cpu.inst::samples     12515.00                       # Average QoS priority value for accepted requests (Count)
system.mem_ctrls0.avgPriority_cpu.data::samples   4588540.00                       # Average QoS priority value for accepted requests (Count)
system.mem_ctrls0.priorityMinLatency     0.000000020000                       # per QoS priority minimum request to response latency (Second)
system.mem_ctrls0.priorityMaxLatency     0.030367683000                       # per QoS priority maximum request to response latency (Second)
system.mem_ctrls0.numReadWriteTurnArounds        21145                       # Number of turnarounds from READ to WRITE (Count)
system.mem_ctrls0.numWriteReadTurnArounds        21145                       # Number of turnarounds from WRITE to READ (Count)
system.mem_ctrls0.numStayReadState           14330492                       # Number of times bus staying in READ state (Count)
system.mem_ctrls0.numStayWriteState            359629                       # Number of times bus staying in WRITE state (Count)
system.mem_ctrls0.readReqs                    4220820                       # Number of read requests accepted (Count)
system.mem_ctrls0.writeReqs                   1501848                       # Number of write requests accepted (Count)
system.mem_ctrls0.readBursts                  4220821                       # Number of controller read bursts, including those serviced by the write queue (Count)
system.mem_ctrls0.writeBursts                 1501848                       # Number of controller write bursts, including those merged in the write queue (Count)
system.mem_ctrls0.servicedByWrQ                   403                       # Number of controller read bursts serviced by the write queue (Count)
system.mem_ctrls0.mergedWrBursts              1121211                       # Number of controller write bursts merged with an existing one (Count)
system.mem_ctrls0.neitherReadNorWriteReqs            0                       # Number of requests that are neither read nor write (Count)
system.mem_ctrls0.avgRdQLen                      1.00                       # Average read queue length when enqueuing ((Count/Tick))
system.mem_ctrls0.avgWrQLen                     24.47                       # Average write queue length when enqueuing ((Count/Tick))
system.mem_ctrls0.numRdRetry                        0                       # Number of times read queue was full causing retry (Count)
system.mem_ctrls0.numWrRetry                        0                       # Number of times write queue was full causing retry (Count)
system.mem_ctrls0.readPktSize::0                78549                       # Read request sizes (log2) (Count)
system.mem_ctrls0.readPktSize::1                  183                       # Read request sizes (log2) (Count)
system.mem_ctrls0.readPktSize::2                  429                       # Read request sizes (log2) (Count)
system.mem_ctrls0.readPktSize::3              4141660                       # Read request sizes (log2) (Count)
system.mem_ctrls0.readPktSize::4                    0                       # Read request sizes (log2) (Count)
system.mem_ctrls0.readPktSize::5                    0                       # Read request sizes (log2) (Count)
system.mem_ctrls0.readPktSize::6                    0                       # Read request sizes (log2) (Count)
system.mem_ctrls0.writePktSize::0                  44                       # Write request sizes (log2) (Count)
system.mem_ctrls0.writePktSize::1                   7                       # Write request sizes (log2) (Count)
system.mem_ctrls0.writePktSize::2                 192                       # Write request sizes (log2) (Count)
system.mem_ctrls0.writePktSize::3             1501605                       # Write request sizes (log2) (Count)
system.mem_ctrls0.writePktSize::4                   0                       # Write request sizes (log2) (Count)
system.mem_ctrls0.writePktSize::5                   0                       # Write request sizes (log2) (Count)
system.mem_ctrls0.writePktSize::6                   0                       # Write request sizes (log2) (Count)
system.mem_ctrls0.rdQLenPdf::0                4220417                       # What read queue length does an incoming req see (Count)
system.mem_ctrls0.rdQLenPdf::1                      1                       # What read queue length does an incoming req see (Count)
system.mem_ctrls0.rdQLenPdf::2                      0                       # What read queue length does an incoming req see (Count)
system.mem_ctrls0.rdQLenPdf::3                      0                       # What read queue length does an incoming req see (Count)
system.mem_ctrls0.rdQLenPdf::4                      0                       # What read queue length does an incoming req see (Count)
system.mem_ctrls0.rdQLenPdf::5                      0                       # What read queue length does an incoming req see (Count)
system.mem_ctrls0.rdQLenPdf::6                      0                       # What read queue length does an incoming req see (Count)
system.mem_ctrls0.rdQLenPdf::7                      0                       # What read queue length does an incoming req see (Count)
system.mem_ctrls0.rdQLenPdf::8                      0                       # What read queue length does an incoming req see (Count)
system.mem_ctrls0.rdQLenPdf::9                      0                       # What read queue length does an incoming req see (Count)
system.mem_ctrls0.rdQLenPdf::10                     0                       # What read queue length does an incoming req see (Count)
system.mem_ctrls0.rdQLenPdf::11                     0                       # What read queue length does an incoming req see (Count)
system.mem_ctrls0.rdQLenPdf::12                     0                       # What read queue length does an incoming req see (Count)
system.mem_ctrls0.rdQLenPdf::13                     0                       # What read queue length does an incoming req see (Count)
system.mem_ctrls0.rdQLenPdf::14                     0                       # What read queue length does an incoming req see (Count)
system.mem_ctrls0.rdQLenPdf::15                     0                       # What read queue length does an incoming req see (Count)
system.mem_ctrls0.rdQLenPdf::16                     0                       # What read queue length does an incoming req see (Count)
system.mem_ctrls0.rdQLenPdf::17                     0                       # What read queue length does an incoming req see (Count)
system.mem_ctrls0.rdQLenPdf::18                     0                       # What read queue length does an incoming req see (Count)
system.mem_ctrls0.rdQLenPdf::19                     0                       # What read queue length does an incoming req see (Count)
system.mem_ctrls0.rdQLenPdf::20                     0                       # What read queue length does an incoming req see (Count)
system.mem_ctrls0.rdQLenPdf::21                     0                       # What read queue length does an incoming req see (Count)
system.mem_ctrls0.rdQLenPdf::22                     0                       # What read queue length does an incoming req see (Count)
system.mem_ctrls0.rdQLenPdf::23                     0                       # What read queue length does an incoming req see (Count)
system.mem_ctrls0.rdQLenPdf::24                     0                       # What read queue length does an incoming req see (Count)
system.mem_ctrls0.rdQLenPdf::25                     0                       # What read queue length does an incoming req see (Count)
system.mem_ctrls0.rdQLenPdf::26                     0                       # What read queue length does an incoming req see (Count)
system.mem_ctrls0.rdQLenPdf::27                     0                       # What read queue length does an incoming req see (Count)
system.mem_ctrls0.rdQLenPdf::28                     0                       # What read queue length does an incoming req see (Count)
system.mem_ctrls0.rdQLenPdf::29                     0                       # What read queue length does an incoming req see (Count)
system.mem_ctrls0.rdQLenPdf::30                     0                       # What read queue length does an incoming req see (Count)
system.mem_ctrls0.rdQLenPdf::31                     0                       # What read queue length does an incoming req see (Count)
system.mem_ctrls0.rdQLenPdf::32                     0                       # What read queue length does an incoming req see (Count)
system.mem_ctrls0.rdQLenPdf::33                     0                       # What read queue length does an incoming req see (Count)
system.mem_ctrls0.rdQLenPdf::34                     0                       # What read queue length does an incoming req see (Count)
system.mem_ctrls0.rdQLenPdf::35                     0                       # What read queue length does an incoming req see (Count)
system.mem_ctrls0.rdQLenPdf::36                     0                       # What read queue length does an incoming req see (Count)
system.mem_ctrls0.rdQLenPdf::37                     0                       # What read queue length does an incoming req see (Count)
system.mem_ctrls0.rdQLenPdf::38                     0                       # What read queue length does an incoming req see (Count)
system.mem_ctrls0.rdQLenPdf::39                     0                       # What read queue length does an incoming req see (Count)
system.mem_ctrls0.rdQLenPdf::40                     0                       # What read queue length does an incoming req see (Count)
system.mem_ctrls0.rdQLenPdf::41                     0                       # What read queue length does an incoming req see (Count)
system.mem_ctrls0.rdQLenPdf::42                     0                       # What read queue length does an incoming req see (Count)
system.mem_ctrls0.rdQLenPdf::43                     0                       # What read queue length does an incoming req see (Count)
system.mem_ctrls0.rdQLenPdf::44                     0                       # What read queue length does an incoming req see (Count)
system.mem_ctrls0.rdQLenPdf::45                     0                       # What read queue length does an incoming req see (Count)
system.mem_ctrls0.rdQLenPdf::46                     0                       # What read queue length does an incoming req see (Count)
system.mem_ctrls0.rdQLenPdf::47                     0                       # What read queue length does an incoming req see (Count)
system.mem_ctrls0.rdQLenPdf::48                     0                       # What read queue length does an incoming req see (Count)
system.mem_ctrls0.rdQLenPdf::49                     0                       # What read queue length does an incoming req see (Count)
system.mem_ctrls0.rdQLenPdf::50                     0                       # What read queue length does an incoming req see (Count)
system.mem_ctrls0.rdQLenPdf::51                     0                       # What read queue length does an incoming req see (Count)
system.mem_ctrls0.rdQLenPdf::52                     0                       # What read queue length does an incoming req see (Count)
system.mem_ctrls0.rdQLenPdf::53                     0                       # What read queue length does an incoming req see (Count)
system.mem_ctrls0.rdQLenPdf::54                     0                       # What read queue length does an incoming req see (Count)
system.mem_ctrls0.rdQLenPdf::55                     0                       # What read queue length does an incoming req see (Count)
system.mem_ctrls0.rdQLenPdf::56                     0                       # What read queue length does an incoming req see (Count)
system.mem_ctrls0.rdQLenPdf::57                     0                       # What read queue length does an incoming req see (Count)
system.mem_ctrls0.rdQLenPdf::58                     0                       # What read queue length does an incoming req see (Count)
system.mem_ctrls0.rdQLenPdf::59                     0                       # What read queue length does an incoming req see (Count)
system.mem_ctrls0.rdQLenPdf::60                     0                       # What read queue length does an incoming req see (Count)
system.mem_ctrls0.rdQLenPdf::61                     0                       # What read queue length does an incoming req see (Count)
system.mem_ctrls0.rdQLenPdf::62                     0                       # What read queue length does an incoming req see (Count)
system.mem_ctrls0.rdQLenPdf::63                     0                       # What read queue length does an incoming req see (Count)
system.mem_ctrls0.wrQLenPdf::0                      1                       # What write queue length does an incoming req see (Count)
system.mem_ctrls0.wrQLenPdf::1                      1                       # What write queue length does an incoming req see (Count)
system.mem_ctrls0.wrQLenPdf::2                      1                       # What write queue length does an incoming req see (Count)
system.mem_ctrls0.wrQLenPdf::3                      1                       # What write queue length does an incoming req see (Count)
system.mem_ctrls0.wrQLenPdf::4                      1                       # What write queue length does an incoming req see (Count)
system.mem_ctrls0.wrQLenPdf::5                      1                       # What write queue length does an incoming req see (Count)
system.mem_ctrls0.wrQLenPdf::6                      1                       # What write queue length does an incoming req see (Count)
system.mem_ctrls0.wrQLenPdf::7                      1                       # What write queue length does an incoming req see (Count)
system.mem_ctrls0.wrQLenPdf::8                      1                       # What write queue length does an incoming req see (Count)
system.mem_ctrls0.wrQLenPdf::9                      1                       # What write queue length does an incoming req see (Count)
system.mem_ctrls0.wrQLenPdf::10                     1                       # What write queue length does an incoming req see (Count)
system.mem_ctrls0.wrQLenPdf::11                     1                       # What write queue length does an incoming req see (Count)
system.mem_ctrls0.wrQLenPdf::12                     1                       # What write queue length does an incoming req see (Count)
system.mem_ctrls0.wrQLenPdf::13                     1                       # What write queue length does an incoming req see (Count)
system.mem_ctrls0.wrQLenPdf::14                     1                       # What write queue length does an incoming req see (Count)
system.mem_ctrls0.wrQLenPdf::15                 21146                       # What write queue length does an incoming req see (Count)
system.mem_ctrls0.wrQLenPdf::16                 21146                       # What write queue length does an incoming req see (Count)
system.mem_ctrls0.wrQLenPdf::17                 21146                       # What write queue length does an incoming req see (Count)
system.mem_ctrls0.wrQLenPdf::18                 21146                       # What write queue length does an incoming req see (Count)
system.mem_ctrls0.wrQLenPdf::19                 21146                       # What write queue length does an incoming req see (Count)
system.mem_ctrls0.wrQLenPdf::20                 21146                       # What write queue length does an incoming req see (Count)
system.mem_ctrls0.wrQLenPdf::21                 21146                       # What write queue length does an incoming req see (Count)
system.mem_ctrls0.wrQLenPdf::22                 21146                       # What write queue length does an incoming req see (Count)
system.mem_ctrls0.wrQLenPdf::23                 21146                       # What write queue length does an incoming req see (Count)
system.mem_ctrls0.wrQLenPdf::24                 21146                       # What write queue length does an incoming req see (Count)
system.mem_ctrls0.wrQLenPdf::25                 21146                       # What write queue length does an incoming req see (Count)
system.mem_ctrls0.wrQLenPdf::26                 21146                       # What write queue length does an incoming req see (Count)
system.mem_ctrls0.wrQLenPdf::27                 21145                       # What write queue length does an incoming req see (Count)
system.mem_ctrls0.wrQLenPdf::28                 21145                       # What write queue length does an incoming req see (Count)
system.mem_ctrls0.wrQLenPdf::29                 21145                       # What write queue length does an incoming req see (Count)
system.mem_ctrls0.wrQLenPdf::30                 21145                       # What write queue length does an incoming req see (Count)
system.mem_ctrls0.wrQLenPdf::31                 21145                       # What write queue length does an incoming req see (Count)
system.mem_ctrls0.wrQLenPdf::32                 21145                       # What write queue length does an incoming req see (Count)
system.mem_ctrls0.wrQLenPdf::33                     0                       # What write queue length does an incoming req see (Count)
system.mem_ctrls0.wrQLenPdf::34                     0                       # What write queue length does an incoming req see (Count)
system.mem_ctrls0.wrQLenPdf::35                     0                       # What write queue length does an incoming req see (Count)
system.mem_ctrls0.wrQLenPdf::36                     0                       # What write queue length does an incoming req see (Count)
system.mem_ctrls0.wrQLenPdf::37                     0                       # What write queue length does an incoming req see (Count)
system.mem_ctrls0.wrQLenPdf::38                     0                       # What write queue length does an incoming req see (Count)
system.mem_ctrls0.wrQLenPdf::39                     0                       # What write queue length does an incoming req see (Count)
system.mem_ctrls0.wrQLenPdf::40                     0                       # What write queue length does an incoming req see (Count)
system.mem_ctrls0.wrQLenPdf::41                     0                       # What write queue length does an incoming req see (Count)
system.mem_ctrls0.wrQLenPdf::42                     0                       # What write queue length does an incoming req see (Count)
system.mem_ctrls0.wrQLenPdf::43                     0                       # What write queue length does an incoming req see (Count)
system.mem_ctrls0.wrQLenPdf::44                     0                       # What write queue length does an incoming req see (Count)
system.mem_ctrls0.wrQLenPdf::45                     0                       # What write queue length does an incoming req see (Count)
system.mem_ctrls0.wrQLenPdf::46                     0                       # What write queue length does an incoming req see (Count)
system.mem_ctrls0.wrQLenPdf::47                     0                       # What write queue length does an incoming req see (Count)
system.mem_ctrls0.wrQLenPdf::48                     0                       # What write queue length does an incoming req see (Count)
system.mem_ctrls0.wrQLenPdf::49                     0                       # What write queue length does an incoming req see (Count)
system.mem_ctrls0.wrQLenPdf::50                     0                       # What write queue length does an incoming req see (Count)
system.mem_ctrls0.wrQLenPdf::51                     0                       # What write queue length does an incoming req see (Count)
system.mem_ctrls0.wrQLenPdf::52                     0                       # What write queue length does an incoming req see (Count)
system.mem_ctrls0.wrQLenPdf::53                     0                       # What write queue length does an incoming req see (Count)
system.mem_ctrls0.wrQLenPdf::54                     0                       # What write queue length does an incoming req see (Count)
system.mem_ctrls0.wrQLenPdf::55                     0                       # What write queue length does an incoming req see (Count)
system.mem_ctrls0.wrQLenPdf::56                     0                       # What write queue length does an incoming req see (Count)
system.mem_ctrls0.wrQLenPdf::57                     0                       # What write queue length does an incoming req see (Count)
system.mem_ctrls0.wrQLenPdf::58                     0                       # What write queue length does an incoming req see (Count)
system.mem_ctrls0.wrQLenPdf::59                     0                       # What write queue length does an incoming req see (Count)
system.mem_ctrls0.wrQLenPdf::60                     0                       # What write queue length does an incoming req see (Count)
system.mem_ctrls0.wrQLenPdf::61                     0                       # What write queue length does an incoming req see (Count)
system.mem_ctrls0.wrQLenPdf::62                     0                       # What write queue length does an incoming req see (Count)
system.mem_ctrls0.wrQLenPdf::63                     0                       # What write queue length does an incoming req see (Count)
system.mem_ctrls0.rdPerTurnAround::samples        21145                       # Reads before turning the bus around for writes (Count)
system.mem_ctrls0.rdPerTurnAround::mean     95.886640                       # Reads before turning the bus around for writes (Count)
system.mem_ctrls0.rdPerTurnAround::stdev    69.754920                       # Reads before turning the bus around for writes (Count)
system.mem_ctrls0.rdPerTurnAround::0-127        12352     58.42%     58.42% # Reads before turning the bus around for writes (Count)
system.mem_ctrls0.rdPerTurnAround::128-255         8789     41.57%     99.98% # Reads before turning the bus around for writes (Count)
system.mem_ctrls0.rdPerTurnAround::512-639            1      0.00%     99.99% # Reads before turning the bus around for writes (Count)
system.mem_ctrls0.rdPerTurnAround::1536-1663            1      0.00%     99.99% # Reads before turning the bus around for writes (Count)
system.mem_ctrls0.rdPerTurnAround::2688-2815            1      0.00%    100.00% # Reads before turning the bus around for writes (Count)
system.mem_ctrls0.rdPerTurnAround::6784-6911            1      0.00%    100.00% # Reads before turning the bus around for writes (Count)
system.mem_ctrls0.rdPerTurnAround::total        21145                       # Reads before turning the bus around for writes (Count)
system.mem_ctrls0.wrPerTurnAround::samples        21145                       # Writes before turning the bus around for reads (Count)
system.mem_ctrls0.wrPerTurnAround::mean            18                       # Writes before turning the bus around for reads (Count)
system.mem_ctrls0.wrPerTurnAround::gmean    18.000000                       # Writes before turning the bus around for reads (Count)
system.mem_ctrls0.wrPerTurnAround::18           21145    100.00%    100.00% # Writes before turning the bus around for reads (Count)
system.mem_ctrls0.wrPerTurnAround::total        21145                       # Writes before turning the bus around for reads (Count)
system.mem_ctrls0.bytesReadWrQ                  12896                       # Total number of bytes read from write queue (Byte)
system.mem_ctrls0.bytesReadSys               33213909                       # Total read bytes from the system interface side (Byte)
system.mem_ctrls0.bytesWrittenSys            12013666                       # Total written bytes from the system interface side (Byte)
system.mem_ctrls0.avgRdBWSys             1947836.16659888                       # Average system read bandwidth in Byte/s ((Byte/Second))
system.mem_ctrls0.avgWrBWSys             704543.78399843                       # Average system write bandwidth in Byte/s ((Byte/Second))
system.mem_ctrls0.totGap                 17051681182000                       # Total gap between requests (Tick)
system.mem_ctrls0.avgGap                   2979673.32                       # Average gap between requests ((Tick/Count))
system.mem_ctrls0.requestorReadBytes::cpu.inst       100120                       # Per-requestor bytes read from memory (Byte)
system.mem_ctrls0.requestorReadBytes::cpu.data     33110597                       # Per-requestor bytes read from memory (Byte)
system.mem_ctrls0.requestorWriteBytes::cpu.data      3044872                       # Per-requestor bytes write to memory (Byte)
system.mem_ctrls0.requestorReadRate::cpu.inst 5871.556913095666                       # Per-requestor bytes read from memory rate ((Byte/Second))
system.mem_ctrls0.requestorReadRate::cpu.data 1941777.414223677712                       # Per-requestor bytes read from memory rate ((Byte/Second))
system.mem_ctrls0.requestorWriteRate::cpu.data 178567.111876662268                       # Per-requestor bytes write to memory rate ((Byte/Second))
system.mem_ctrls0.requestorReadAccesses::cpu.inst        12515                       # Per-requestor read serviced memory accesses (Count)
system.mem_ctrls0.requestorReadAccesses::cpu.data      4208306                       # Per-requestor read serviced memory accesses (Count)
system.mem_ctrls0.requestorWriteAccesses::cpu.data      1501848                       # Per-requestor write serviced memory accesses (Count)
system.mem_ctrls0.requestorReadTotalLat::cpu.inst    446570000                       # Per-requestor read total memory access latency (Tick)
system.mem_ctrls0.requestorReadTotalLat::cpu.data 156922356000                       # Per-requestor read total memory access latency (Tick)
system.mem_ctrls0.requestorWriteTotalLat::cpu.data 355367055536000                       # Per-requestor write total memory access latency (Tick)
system.mem_ctrls0.requestorReadAvgLat::cpu.inst     35682.78                       # Per-requestor read average memory access latency ((Tick/Count))
system.mem_ctrls0.requestorReadAvgLat::cpu.data     37288.72                       # Per-requestor read average memory access latency ((Tick/Count))
system.mem_ctrls0.requestorWriteAvgLat::cpu.data 236619854.70                       # Per-requestor write average memory access latency ((Tick/Count))
system.mem_ctrls0.dram.bytesRead::cpu.inst       100120                       # Number of bytes read from this memory (Byte)
system.mem_ctrls0.dram.bytesRead::cpu.data     33113789                       # Number of bytes read from this memory (Byte)
system.mem_ctrls0.dram.bytesRead::total      33213909                       # Number of bytes read from this memory (Byte)
system.mem_ctrls0.dram.bytesInstRead::cpu.inst       100120                       # Number of instructions bytes read from this memory (Byte)
system.mem_ctrls0.dram.bytesInstRead::total       100120                       # Number of instructions bytes read from this memory (Byte)
system.mem_ctrls0.dram.bytesWritten::cpu.data     12013666                       # Number of bytes written to this memory (Byte)
system.mem_ctrls0.dram.bytesWritten::total     12013666                       # Number of bytes written to this memory (Byte)
system.mem_ctrls0.dram.numReads::cpu.inst        12515                       # Number of read requests responded to by this memory (Count)
system.mem_ctrls0.dram.numReads::cpu.data      4208305                       # Number of read requests responded to by this memory (Count)
system.mem_ctrls0.dram.numReads::total        4220820                       # Number of read requests responded to by this memory (Count)
system.mem_ctrls0.dram.numWrites::cpu.data      1501848                       # Number of write requests responded to by this memory (Count)
system.mem_ctrls0.dram.numWrites::total       1501848                       # Number of write requests responded to by this memory (Count)
system.mem_ctrls0.dram.bwRead::cpu.inst          5872                       # Total read bandwidth from this memory ((Byte/Second))
system.mem_ctrls0.dram.bwRead::cpu.data       1941965                       # Total read bandwidth from this memory ((Byte/Second))
system.mem_ctrls0.dram.bwRead::total          1947836                       # Total read bandwidth from this memory ((Byte/Second))
system.mem_ctrls0.dram.bwInstRead::cpu.inst         5872                       # Instruction read bandwidth from this memory ((Byte/Second))
system.mem_ctrls0.dram.bwInstRead::total         5872                       # Instruction read bandwidth from this memory ((Byte/Second))
system.mem_ctrls0.dram.bwWrite::cpu.data       704544                       # Write bandwidth from this memory ((Byte/Second))
system.mem_ctrls0.dram.bwWrite::total          704544                       # Write bandwidth from this memory ((Byte/Second))
system.mem_ctrls0.dram.bwTotal::cpu.inst         5872                       # Total bandwidth to/from this memory ((Byte/Second))
system.mem_ctrls0.dram.bwTotal::cpu.data      2646508                       # Total bandwidth to/from this memory ((Byte/Second))
system.mem_ctrls0.dram.bwTotal::total         2652380                       # Total bandwidth to/from this memory ((Byte/Second))
system.mem_ctrls0.dram.readBursts             4220418                       # Number of DRAM read bursts (Count)
system.mem_ctrls0.dram.writeBursts             380610                       # Number of DRAM write bursts (Count)
system.mem_ctrls0.dram.perBankRdBursts::0       137063                       # Per bank write bursts (Count)
system.mem_ctrls0.dram.perBankRdBursts::1       138939                       # Per bank write bursts (Count)
system.mem_ctrls0.dram.perBankRdBursts::2       138650                       # Per bank write bursts (Count)
system.mem_ctrls0.dram.perBankRdBursts::3       138489                       # Per bank write bursts (Count)
system.mem_ctrls0.dram.perBankRdBursts::4       138464                       # Per bank write bursts (Count)
system.mem_ctrls0.dram.perBankRdBursts::5      2139730                       # Per bank write bursts (Count)
system.mem_ctrls0.dram.perBankRdBursts::6       138541                       # Per bank write bursts (Count)
system.mem_ctrls0.dram.perBankRdBursts::7       138757                       # Per bank write bursts (Count)
system.mem_ctrls0.dram.perBankRdBursts::8       141270                       # Per bank write bursts (Count)
system.mem_ctrls0.dram.perBankRdBursts::9       138299                       # Per bank write bursts (Count)
system.mem_ctrls0.dram.perBankRdBursts::10       136976                       # Per bank write bursts (Count)
system.mem_ctrls0.dram.perBankRdBursts::11       139020                       # Per bank write bursts (Count)
system.mem_ctrls0.dram.perBankRdBursts::12       139722                       # Per bank write bursts (Count)
system.mem_ctrls0.dram.perBankRdBursts::13       138092                       # Per bank write bursts (Count)
system.mem_ctrls0.dram.perBankRdBursts::14       138631                       # Per bank write bursts (Count)
system.mem_ctrls0.dram.perBankRdBursts::15       139775                       # Per bank write bursts (Count)
system.mem_ctrls0.dram.perBankWrBursts::0        23576                       # Per bank write bursts (Count)
system.mem_ctrls0.dram.perBankWrBursts::1        23920                       # Per bank write bursts (Count)
system.mem_ctrls0.dram.perBankWrBursts::2        23963                       # Per bank write bursts (Count)
system.mem_ctrls0.dram.perBankWrBursts::3        23963                       # Per bank write bursts (Count)
system.mem_ctrls0.dram.perBankWrBursts::4        23966                       # Per bank write bursts (Count)
system.mem_ctrls0.dram.perBankWrBursts::5        24009                       # Per bank write bursts (Count)
system.mem_ctrls0.dram.perBankWrBursts::6        23962                       # Per bank write bursts (Count)
system.mem_ctrls0.dram.perBankWrBursts::7        23963                       # Per bank write bursts (Count)
system.mem_ctrls0.dram.perBankWrBursts::8        23986                       # Per bank write bursts (Count)
system.mem_ctrls0.dram.perBankWrBursts::9        23827                       # Per bank write bursts (Count)
system.mem_ctrls0.dram.perBankWrBursts::10        23590                       # Per bank write bursts (Count)
system.mem_ctrls0.dram.perBankWrBursts::11        23580                       # Per bank write bursts (Count)
system.mem_ctrls0.dram.perBankWrBursts::12        23575                       # Per bank write bursts (Count)
system.mem_ctrls0.dram.perBankWrBursts::13        23576                       # Per bank write bursts (Count)
system.mem_ctrls0.dram.perBankWrBursts::14        23577                       # Per bank write bursts (Count)
system.mem_ctrls0.dram.perBankWrBursts::15        23577                       # Per bank write bursts (Count)
system.mem_ctrls0.dram.totQLat            72960566000                       # Total ticks spent queuing (Tick)
system.mem_ctrls0.dram.totBusLat           8440836000                       # Total ticks spent in databus transfers (Tick)
system.mem_ctrls0.dram.totMemAccLat      157368926000                       # Total ticks spent from burst creation until serviced by the DRAM (Tick)
system.mem_ctrls0.dram.avgQLat               17287.52                       # Average queueing delay per DRAM burst ((Tick/Count))
system.mem_ctrls0.dram.avgBusLat              2000.00                       # Average bus latency per DRAM burst ((Tick/Count))
system.mem_ctrls0.dram.avgMemAccLat          37287.52                       # Average memory access latency per DRAM burst ((Tick/Count))
system.mem_ctrls0.dram.readRowHits                636                       # Number of row buffer hits during reads (Count)
system.mem_ctrls0.dram.writeRowHits            325333                       # Number of row buffer hits during writes (Count)
system.mem_ctrls0.dram.readRowHitRate            0.02                       # Row buffer hit rate for reads (Ratio)
system.mem_ctrls0.dram.writeRowHitRate          85.48                       # Row buffer hit rate for writes (Ratio)
system.mem_ctrls0.dram.bytesPerActivate::samples      4275059                       # Bytes accessed per row activation (Byte)
system.mem_ctrls0.dram.bytesPerActivate::mean    34.439968                       # Bytes accessed per row activation (Byte)
system.mem_ctrls0.dram.bytesPerActivate::gmean    32.748323                       # Bytes accessed per row activation (Byte)
system.mem_ctrls0.dram.bytesPerActivate::stdev    23.539357                       # Bytes accessed per row activation (Byte)
system.mem_ctrls0.dram.bytesPerActivate::32-63      4223704     98.80%     98.80% # Bytes accessed per row activation (Byte)
system.mem_ctrls0.dram.bytesPerActivate::64-95         2493      0.06%     98.86% # Bytes accessed per row activation (Byte)
system.mem_ctrls0.dram.bytesPerActivate::96-127         2234      0.05%     98.91% # Bytes accessed per row activation (Byte)
system.mem_ctrls0.dram.bytesPerActivate::128-159         1959      0.05%     98.96% # Bytes accessed per row activation (Byte)
system.mem_ctrls0.dram.bytesPerActivate::160-191         6697      0.16%     99.11% # Bytes accessed per row activation (Byte)
system.mem_ctrls0.dram.bytesPerActivate::192-223         1138      0.03%     99.14% # Bytes accessed per row activation (Byte)
system.mem_ctrls0.dram.bytesPerActivate::224-255         3498      0.08%     99.22% # Bytes accessed per row activation (Byte)
system.mem_ctrls0.dram.bytesPerActivate::256-287        16634      0.39%     99.61% # Bytes accessed per row activation (Byte)
system.mem_ctrls0.dram.bytesPerActivate::288-319         7147      0.17%     99.78% # Bytes accessed per row activation (Byte)
system.mem_ctrls0.dram.bytesPerActivate::320-351         9519      0.22%    100.00% # Bytes accessed per row activation (Byte)
system.mem_ctrls0.dram.bytesPerActivate::352-383           24      0.00%    100.00% # Bytes accessed per row activation (Byte)
system.mem_ctrls0.dram.bytesPerActivate::384-415            8      0.00%    100.00% # Bytes accessed per row activation (Byte)
system.mem_ctrls0.dram.bytesPerActivate::416-447            2      0.00%    100.00% # Bytes accessed per row activation (Byte)
system.mem_ctrls0.dram.bytesPerActivate::480-511            2      0.00%    100.00% # Bytes accessed per row activation (Byte)
system.mem_ctrls0.dram.bytesPerActivate::total      4275059                       # Bytes accessed per row activation (Byte)
system.mem_ctrls0.dram.bytesRead            135053376                       # Total bytes read (Byte)
system.mem_ctrls0.dram.bytesWritten          12179520                       # Total bytes written (Byte)
system.mem_ctrls0.dram.avgRdBW               7.920232                       # Average DRAM read bandwidth in MiBytes/s ((Byte/Second))
system.mem_ctrls0.dram.avgWrBW               0.714270                       # Average DRAM write bandwidth in MiBytes/s ((Byte/Second))
system.mem_ctrls0.dram.peakBW                16000.00                       # Theoretical peak bandwidth in MiByte/s ((Byte/Second))
system.mem_ctrls0.dram.busUtil                   0.05                       # Data bus utilization in percentage (Ratio)
system.mem_ctrls0.dram.busUtilRead               0.05                       # Data bus utilization in percentage for reads (Ratio)
system.mem_ctrls0.dram.busUtilWrite              0.00                       # Data bus utilization in percentage for writes (Ratio)
system.mem_ctrls0.dram.pageHitRate               7.08                       # Row buffer hit rate, read and write combined (Ratio)
system.mem_ctrls0.dram.power_state.pwrStateResidencyTicks::UNDEFINED 17051695399000                       # Cumulative time (in ticks) in various power states (Tick)
system.mem_ctrls0.dram.rank0.actEnergy              0                       # Energy for activate commands per rank (pJ) (Joule)
system.mem_ctrls0.dram.rank0.preEnergy              0                       # Energy for precharge commands per rank (pJ) (Joule)
system.mem_ctrls0.dram.rank0.readEnergy             0                       # Energy for read commands per rank (pJ) (Joule)
system.mem_ctrls0.dram.rank0.writeEnergy            0                       # Energy for write commands per rank (pJ) (Joule)
system.mem_ctrls0.dram.rank0.refreshEnergy            0                       # Energy for refresh commands per rank (pJ) (Joule)
system.mem_ctrls0.dram.rank0.actBackEnergy            0                       # Energy for active background per rank (pJ) (Joule)
system.mem_ctrls0.dram.rank0.preBackEnergy            0                       # Energy for precharge background per rank (pJ) (Joule)
system.mem_ctrls0.dram.rank0.actPowerDownEnergy            0                       # Energy for active power-down per rank (pJ) (Joule)
system.mem_ctrls0.dram.rank0.prePowerDownEnergy            0                       # Energy for precharge power-down per rank (pJ) (Joule)
system.mem_ctrls0.dram.rank0.selfRefreshEnergy            0                       # Energy for self refresh per rank (pJ) (Joule)
system.mem_ctrls0.dram.rank0.totalEnergy            0                       # Total energy per rank (pJ) (Joule)
system.mem_ctrls0.dram.rank0.averagePower            0                       # Core power per rank (mW) (Watt)
system.mem_ctrls0.dram.rank0.totalIdleTime            0                       # Total Idle time Per DRAM Rank (Tick)
system.mem_ctrls0.dram.rank0.pwrStateTime::IDLE 15872627379000                       # Time in different power states (Tick)
system.mem_ctrls0.dram.rank0.pwrStateTime::REF 965355820000                       # Time in different power states (Tick)
system.mem_ctrls0.dram.rank0.pwrStateTime::SREF            0                       # Time in different power states (Tick)
system.mem_ctrls0.dram.rank0.pwrStateTime::PRE_PDN            0                       # Time in different power states (Tick)
system.mem_ctrls0.dram.rank0.pwrStateTime::ACT 213712200000                       # Time in different power states (Tick)
system.mem_ctrls0.dram.rank0.pwrStateTime::ACT_PDN            0                       # Time in different power states (Tick)
system.mem_ctrls0.power_state.pwrStateResidencyTicks::UNDEFINED 17051695399000                       # Cumulative time (in ticks) in various power states (Tick)
system.mem_ctrls1.avgPriority_cpu.inst::samples      8008.00                       # Average QoS priority value for accepted requests (Count)
system.mem_ctrls1.avgPriority_cpu.data::samples   3586761.00                       # Average QoS priority value for accepted requests (Count)
system.mem_ctrls1.priorityMinLatency     0.000000020000                       # per QoS priority minimum request to response latency (Second)
system.mem_ctrls1.priorityMaxLatency     0.032493177000                       # per QoS priority maximum request to response latency (Second)
system.mem_ctrls1.numReadWriteTurnArounds        21147                       # Number of turnarounds from READ to WRITE (Count)
system.mem_ctrls1.numWriteReadTurnArounds        21147                       # Number of turnarounds from WRITE to READ (Count)
system.mem_ctrls1.numStayReadState           12317579                       # Number of times bus staying in READ state (Count)
system.mem_ctrls1.numStayWriteState            359562                       # Number of times bus staying in WRITE state (Count)
system.mem_ctrls1.readReqs                    3214533                       # Number of read requests accepted (Count)
system.mem_ctrls1.writeReqs                   1501482                       # Number of write requests accepted (Count)
system.mem_ctrls1.readBursts                  3214534                       # Number of controller read bursts, including those serviced by the write queue (Count)
system.mem_ctrls1.writeBursts                 1501482                       # Number of controller write bursts, including those merged in the write queue (Count)
system.mem_ctrls1.servicedByWrQ                   439                       # Number of controller read bursts serviced by the write queue (Count)
system.mem_ctrls1.mergedWrBursts              1120808                       # Number of controller write bursts merged with an existing one (Count)
system.mem_ctrls1.neitherReadNorWriteReqs            0                       # Number of requests that are neither read nor write (Count)
system.mem_ctrls1.avgRdQLen                      1.00                       # Average read queue length when enqueuing ((Count/Tick))
system.mem_ctrls1.avgWrQLen                     24.61                       # Average write queue length when enqueuing ((Count/Tick))
system.mem_ctrls1.numRdRetry                        0                       # Number of times read queue was full causing retry (Count)
system.mem_ctrls1.numWrRetry                        0                       # Number of times write queue was full causing retry (Count)
system.mem_ctrls1.readPktSize::0                78713                       # Read request sizes (log2) (Count)
system.mem_ctrls1.readPktSize::1                  211                       # Read request sizes (log2) (Count)
system.mem_ctrls1.readPktSize::2                  546                       # Read request sizes (log2) (Count)
system.mem_ctrls1.readPktSize::3              3135064                       # Read request sizes (log2) (Count)
system.mem_ctrls1.readPktSize::4                    0                       # Read request sizes (log2) (Count)
system.mem_ctrls1.readPktSize::5                    0                       # Read request sizes (log2) (Count)
system.mem_ctrls1.readPktSize::6                    0                       # Read request sizes (log2) (Count)
system.mem_ctrls1.writePktSize::0                   7                       # Write request sizes (log2) (Count)
system.mem_ctrls1.writePktSize::1                  17                       # Write request sizes (log2) (Count)
system.mem_ctrls1.writePktSize::2                  19                       # Write request sizes (log2) (Count)
system.mem_ctrls1.writePktSize::3             1501439                       # Write request sizes (log2) (Count)
system.mem_ctrls1.writePktSize::4                   0                       # Write request sizes (log2) (Count)
system.mem_ctrls1.writePktSize::5                   0                       # Write request sizes (log2) (Count)
system.mem_ctrls1.writePktSize::6                   0                       # Write request sizes (log2) (Count)
system.mem_ctrls1.rdQLenPdf::0                3214094                       # What read queue length does an incoming req see (Count)
system.mem_ctrls1.rdQLenPdf::1                      1                       # What read queue length does an incoming req see (Count)
system.mem_ctrls1.rdQLenPdf::2                      0                       # What read queue length does an incoming req see (Count)
system.mem_ctrls1.rdQLenPdf::3                      0                       # What read queue length does an incoming req see (Count)
system.mem_ctrls1.rdQLenPdf::4                      0                       # What read queue length does an incoming req see (Count)
system.mem_ctrls1.rdQLenPdf::5                      0                       # What read queue length does an incoming req see (Count)
system.mem_ctrls1.rdQLenPdf::6                      0                       # What read queue length does an incoming req see (Count)
system.mem_ctrls1.rdQLenPdf::7                      0                       # What read queue length does an incoming req see (Count)
system.mem_ctrls1.rdQLenPdf::8                      0                       # What read queue length does an incoming req see (Count)
system.mem_ctrls1.rdQLenPdf::9                      0                       # What read queue length does an incoming req see (Count)
system.mem_ctrls1.rdQLenPdf::10                     0                       # What read queue length does an incoming req see (Count)
system.mem_ctrls1.rdQLenPdf::11                     0                       # What read queue length does an incoming req see (Count)
system.mem_ctrls1.rdQLenPdf::12                     0                       # What read queue length does an incoming req see (Count)
system.mem_ctrls1.rdQLenPdf::13                     0                       # What read queue length does an incoming req see (Count)
system.mem_ctrls1.rdQLenPdf::14                     0                       # What read queue length does an incoming req see (Count)
system.mem_ctrls1.rdQLenPdf::15                     0                       # What read queue length does an incoming req see (Count)
system.mem_ctrls1.rdQLenPdf::16                     0                       # What read queue length does an incoming req see (Count)
system.mem_ctrls1.rdQLenPdf::17                     0                       # What read queue length does an incoming req see (Count)
system.mem_ctrls1.rdQLenPdf::18                     0                       # What read queue length does an incoming req see (Count)
system.mem_ctrls1.rdQLenPdf::19                     0                       # What read queue length does an incoming req see (Count)
system.mem_ctrls1.rdQLenPdf::20                     0                       # What read queue length does an incoming req see (Count)
system.mem_ctrls1.rdQLenPdf::21                     0                       # What read queue length does an incoming req see (Count)
system.mem_ctrls1.rdQLenPdf::22                     0                       # What read queue length does an incoming req see (Count)
system.mem_ctrls1.rdQLenPdf::23                     0                       # What read queue length does an incoming req see (Count)
system.mem_ctrls1.rdQLenPdf::24                     0                       # What read queue length does an incoming req see (Count)
system.mem_ctrls1.rdQLenPdf::25                     0                       # What read queue length does an incoming req see (Count)
system.mem_ctrls1.rdQLenPdf::26                     0                       # What read queue length does an incoming req see (Count)
system.mem_ctrls1.rdQLenPdf::27                     0                       # What read queue length does an incoming req see (Count)
system.mem_ctrls1.rdQLenPdf::28                     0                       # What read queue length does an incoming req see (Count)
system.mem_ctrls1.rdQLenPdf::29                     0                       # What read queue length does an incoming req see (Count)
system.mem_ctrls1.rdQLenPdf::30                     0                       # What read queue length does an incoming req see (Count)
system.mem_ctrls1.rdQLenPdf::31                     0                       # What read queue length does an incoming req see (Count)
system.mem_ctrls1.rdQLenPdf::32                     0                       # What read queue length does an incoming req see (Count)
system.mem_ctrls1.rdQLenPdf::33                     0                       # What read queue length does an incoming req see (Count)
system.mem_ctrls1.rdQLenPdf::34                     0                       # What read queue length does an incoming req see (Count)
system.mem_ctrls1.rdQLenPdf::35                     0                       # What read queue length does an incoming req see (Count)
system.mem_ctrls1.rdQLenPdf::36                     0                       # What read queue length does an incoming req see (Count)
system.mem_ctrls1.rdQLenPdf::37                     0                       # What read queue length does an incoming req see (Count)
system.mem_ctrls1.rdQLenPdf::38                     0                       # What read queue length does an incoming req see (Count)
system.mem_ctrls1.rdQLenPdf::39                     0                       # What read queue length does an incoming req see (Count)
system.mem_ctrls1.rdQLenPdf::40                     0                       # What read queue length does an incoming req see (Count)
system.mem_ctrls1.rdQLenPdf::41                     0                       # What read queue length does an incoming req see (Count)
system.mem_ctrls1.rdQLenPdf::42                     0                       # What read queue length does an incoming req see (Count)
system.mem_ctrls1.rdQLenPdf::43                     0                       # What read queue length does an incoming req see (Count)
system.mem_ctrls1.rdQLenPdf::44                     0                       # What read queue length does an incoming req see (Count)
system.mem_ctrls1.rdQLenPdf::45                     0                       # What read queue length does an incoming req see (Count)
system.mem_ctrls1.rdQLenPdf::46                     0                       # What read queue length does an incoming req see (Count)
system.mem_ctrls1.rdQLenPdf::47                     0                       # What read queue length does an incoming req see (Count)
system.mem_ctrls1.rdQLenPdf::48                     0                       # What read queue length does an incoming req see (Count)
system.mem_ctrls1.rdQLenPdf::49                     0                       # What read queue length does an incoming req see (Count)
system.mem_ctrls1.rdQLenPdf::50                     0                       # What read queue length does an incoming req see (Count)
system.mem_ctrls1.rdQLenPdf::51                     0                       # What read queue length does an incoming req see (Count)
system.mem_ctrls1.rdQLenPdf::52                     0                       # What read queue length does an incoming req see (Count)
system.mem_ctrls1.rdQLenPdf::53                     0                       # What read queue length does an incoming req see (Count)
system.mem_ctrls1.rdQLenPdf::54                     0                       # What read queue length does an incoming req see (Count)
system.mem_ctrls1.rdQLenPdf::55                     0                       # What read queue length does an incoming req see (Count)
system.mem_ctrls1.rdQLenPdf::56                     0                       # What read queue length does an incoming req see (Count)
system.mem_ctrls1.rdQLenPdf::57                     0                       # What read queue length does an incoming req see (Count)
system.mem_ctrls1.rdQLenPdf::58                     0                       # What read queue length does an incoming req see (Count)
system.mem_ctrls1.rdQLenPdf::59                     0                       # What read queue length does an incoming req see (Count)
system.mem_ctrls1.rdQLenPdf::60                     0                       # What read queue length does an incoming req see (Count)
system.mem_ctrls1.rdQLenPdf::61                     0                       # What read queue length does an incoming req see (Count)
system.mem_ctrls1.rdQLenPdf::62                     0                       # What read queue length does an incoming req see (Count)
system.mem_ctrls1.rdQLenPdf::63                     0                       # What read queue length does an incoming req see (Count)
system.mem_ctrls1.wrQLenPdf::0                      1                       # What write queue length does an incoming req see (Count)
system.mem_ctrls1.wrQLenPdf::1                      1                       # What write queue length does an incoming req see (Count)
system.mem_ctrls1.wrQLenPdf::2                      1                       # What write queue length does an incoming req see (Count)
system.mem_ctrls1.wrQLenPdf::3                      1                       # What write queue length does an incoming req see (Count)
system.mem_ctrls1.wrQLenPdf::4                      1                       # What write queue length does an incoming req see (Count)
system.mem_ctrls1.wrQLenPdf::5                      1                       # What write queue length does an incoming req see (Count)
system.mem_ctrls1.wrQLenPdf::6                      1                       # What write queue length does an incoming req see (Count)
system.mem_ctrls1.wrQLenPdf::7                      1                       # What write queue length does an incoming req see (Count)
system.mem_ctrls1.wrQLenPdf::8                      1                       # What write queue length does an incoming req see (Count)
system.mem_ctrls1.wrQLenPdf::9                      1                       # What write queue length does an incoming req see (Count)
system.mem_ctrls1.wrQLenPdf::10                     1                       # What write queue length does an incoming req see (Count)
system.mem_ctrls1.wrQLenPdf::11                     1                       # What write queue length does an incoming req see (Count)
system.mem_ctrls1.wrQLenPdf::12                     1                       # What write queue length does an incoming req see (Count)
system.mem_ctrls1.wrQLenPdf::13                     1                       # What write queue length does an incoming req see (Count)
system.mem_ctrls1.wrQLenPdf::14                     1                       # What write queue length does an incoming req see (Count)
system.mem_ctrls1.wrQLenPdf::15                 21148                       # What write queue length does an incoming req see (Count)
system.mem_ctrls1.wrQLenPdf::16                 21148                       # What write queue length does an incoming req see (Count)
system.mem_ctrls1.wrQLenPdf::17                 21148                       # What write queue length does an incoming req see (Count)
system.mem_ctrls1.wrQLenPdf::18                 21148                       # What write queue length does an incoming req see (Count)
system.mem_ctrls1.wrQLenPdf::19                 21148                       # What write queue length does an incoming req see (Count)
system.mem_ctrls1.wrQLenPdf::20                 21148                       # What write queue length does an incoming req see (Count)
system.mem_ctrls1.wrQLenPdf::21                 21148                       # What write queue length does an incoming req see (Count)
system.mem_ctrls1.wrQLenPdf::22                 21148                       # What write queue length does an incoming req see (Count)
system.mem_ctrls1.wrQLenPdf::23                 21148                       # What write queue length does an incoming req see (Count)
system.mem_ctrls1.wrQLenPdf::24                 21148                       # What write queue length does an incoming req see (Count)
system.mem_ctrls1.wrQLenPdf::25                 21148                       # What write queue length does an incoming req see (Count)
system.mem_ctrls1.wrQLenPdf::26                 21148                       # What write queue length does an incoming req see (Count)
system.mem_ctrls1.wrQLenPdf::27                 21148                       # What write queue length does an incoming req see (Count)
system.mem_ctrls1.wrQLenPdf::28                 21147                       # What write queue length does an incoming req see (Count)
system.mem_ctrls1.wrQLenPdf::29                 21147                       # What write queue length does an incoming req see (Count)
system.mem_ctrls1.wrQLenPdf::30                 21147                       # What write queue length does an incoming req see (Count)
system.mem_ctrls1.wrQLenPdf::31                 21147                       # What write queue length does an incoming req see (Count)
system.mem_ctrls1.wrQLenPdf::32                 21147                       # What write queue length does an incoming req see (Count)
system.mem_ctrls1.wrQLenPdf::33                     0                       # What write queue length does an incoming req see (Count)
system.mem_ctrls1.wrQLenPdf::34                     0                       # What write queue length does an incoming req see (Count)
system.mem_ctrls1.wrQLenPdf::35                     0                       # What write queue length does an incoming req see (Count)
system.mem_ctrls1.wrQLenPdf::36                     0                       # What write queue length does an incoming req see (Count)
system.mem_ctrls1.wrQLenPdf::37                     0                       # What write queue length does an incoming req see (Count)
system.mem_ctrls1.wrQLenPdf::38                     0                       # What write queue length does an incoming req see (Count)
system.mem_ctrls1.wrQLenPdf::39                     0                       # What write queue length does an incoming req see (Count)
system.mem_ctrls1.wrQLenPdf::40                     0                       # What write queue length does an incoming req see (Count)
system.mem_ctrls1.wrQLenPdf::41                     0                       # What write queue length does an incoming req see (Count)
system.mem_ctrls1.wrQLenPdf::42                     0                       # What write queue length does an incoming req see (Count)
system.mem_ctrls1.wrQLenPdf::43                     0                       # What write queue length does an incoming req see (Count)
system.mem_ctrls1.wrQLenPdf::44                     0                       # What write queue length does an incoming req see (Count)
system.mem_ctrls1.wrQLenPdf::45                     0                       # What write queue length does an incoming req see (Count)
system.mem_ctrls1.wrQLenPdf::46                     0                       # What write queue length does an incoming req see (Count)
system.mem_ctrls1.wrQLenPdf::47                     0                       # What write queue length does an incoming req see (Count)
system.mem_ctrls1.wrQLenPdf::48                     0                       # What write queue length does an incoming req see (Count)
system.mem_ctrls1.wrQLenPdf::49                     0                       # What write queue length does an incoming req see (Count)
system.mem_ctrls1.wrQLenPdf::50                     0                       # What write queue length does an incoming req see (Count)
system.mem_ctrls1.wrQLenPdf::51                     0                       # What write queue length does an incoming req see (Count)
system.mem_ctrls1.wrQLenPdf::52                     0                       # What write queue length does an incoming req see (Count)
system.mem_ctrls1.wrQLenPdf::53                     0                       # What write queue length does an incoming req see (Count)
system.mem_ctrls1.wrQLenPdf::54                     0                       # What write queue length does an incoming req see (Count)
system.mem_ctrls1.wrQLenPdf::55                     0                       # What write queue length does an incoming req see (Count)
system.mem_ctrls1.wrQLenPdf::56                     0                       # What write queue length does an incoming req see (Count)
system.mem_ctrls1.wrQLenPdf::57                     0                       # What write queue length does an incoming req see (Count)
system.mem_ctrls1.wrQLenPdf::58                     0                       # What write queue length does an incoming req see (Count)
system.mem_ctrls1.wrQLenPdf::59                     0                       # What write queue length does an incoming req see (Count)
system.mem_ctrls1.wrQLenPdf::60                     0                       # What write queue length does an incoming req see (Count)
system.mem_ctrls1.wrQLenPdf::61                     0                       # What write queue length does an incoming req see (Count)
system.mem_ctrls1.wrQLenPdf::62                     0                       # What write queue length does an incoming req see (Count)
system.mem_ctrls1.wrQLenPdf::63                     0                       # What write queue length does an incoming req see (Count)
system.mem_ctrls1.rdPerTurnAround::samples        21147                       # Reads before turning the bus around for writes (Count)
system.mem_ctrls1.rdPerTurnAround::mean     95.697971                       # Reads before turning the bus around for writes (Count)
system.mem_ctrls1.rdPerTurnAround::stdev    59.660627                       # Reads before turning the bus around for writes (Count)
system.mem_ctrls1.rdPerTurnAround::0-127        12356     58.43%     58.43% # Reads before turning the bus around for writes (Count)
system.mem_ctrls1.rdPerTurnAround::128-255         8787     41.55%     99.98% # Reads before turning the bus around for writes (Count)
system.mem_ctrls1.rdPerTurnAround::512-639            1      0.00%     99.99% # Reads before turning the bus around for writes (Count)
system.mem_ctrls1.rdPerTurnAround::896-1023            1      0.00%     99.99% # Reads before turning the bus around for writes (Count)
system.mem_ctrls1.rdPerTurnAround::1152-1279            1      0.00%    100.00% # Reads before turning the bus around for writes (Count)
system.mem_ctrls1.rdPerTurnAround::5120-5247            1      0.00%    100.00% # Reads before turning the bus around for writes (Count)
system.mem_ctrls1.rdPerTurnAround::total        21147                       # Reads before turning the bus around for writes (Count)
system.mem_ctrls1.wrPerTurnAround::samples        21147                       # Writes before turning the bus around for reads (Count)
system.mem_ctrls1.wrPerTurnAround::mean            18                       # Writes before turning the bus around for reads (Count)
system.mem_ctrls1.wrPerTurnAround::gmean    18.000000                       # Writes before turning the bus around for reads (Count)
system.mem_ctrls1.wrPerTurnAround::18           21147    100.00%    100.00% # Writes before turning the bus around for reads (Count)
system.mem_ctrls1.wrPerTurnAround::total        21147                       # Writes before turning the bus around for reads (Count)
system.mem_ctrls1.bytesReadWrQ                  14048                       # Total number of bytes read from write queue (Byte)
[...]
system.mem_ctrls9.dram.rank0.pwrStateTime::REF 965355820000                       # Time in different power states (Tick)
system.mem_ctrls9.dram.rank0.pwrStateTime::SREF            0                       # Time in different power states (Tick)
system.mem_ctrls9.dram.rank0.pwrStateTime::PRE_PDN            0                       # Time in different power states (Tick)
system.mem_ctrls9.dram.rank0.pwrStateTime::ACT 130878605000                       # Time in different power states (Tick)
system.mem_ctrls9.dram.rank0.pwrStateTime::ACT_PDN            0                       # Time in different power states (Tick)
system.mem_ctrls9.power_state.pwrStateResidencyTicks::UNDEFINED 17051695399000                       # Cumulative time (in ticks) in various power states (Tick)
system.membus.transDist::ReadReq            251866576                       # Transaction distribution (Count)
system.membus.transDist::ReadResp           251866576                       # Transaction distribution (Count)
system.membus.transDist::WriteReq            24020845                       # Transaction distribution (Count)
system.membus.transDist::WriteResp           24020845                       # Transaction distribution (Count)
system.membus.transDist::SoftPFReq            1249990                       # Transaction distribution (Count)
system.membus.transDist::SoftPFResp           1249990                       # Transaction distribution (Count)
system.membus.pktCount_system.cpu.icache_port::system.mem_ctrls00.port        25030                       # Packet count per connected requestor and responder (Count)
system.membus.pktCount_system.cpu.icache_port::system.mem_ctrls01.port        16016                       # Packet count per connected requestor and responder (Count)
system.membus.pktCount_system.cpu.icache_port::system.mem_ctrls02.port        14658                       # Packet count per connected requestor and responder (Count)
system.membus.pktCount_system.cpu.icache_port::system.mem_ctrls03.port        22708                       # Packet count per connected requestor and responder (Count)
system.membus.pktCount_system.cpu.icache_port::system.mem_ctrls04.port     18069804                       # Packet count per connected requestor and responder (Count)
system.membus.pktCount_system.cpu.icache_port::system.mem_ctrls05.port        85310                       # Packet count per connected requestor and responder (Count)
system.membus.pktCount_system.cpu.icache_port::system.mem_ctrls06.port     14119554                       # Packet count per connected requestor and responder (Count)
system.membus.pktCount_system.cpu.icache_port::system.mem_ctrls07.port      7548442                       # Packet count per connected requestor and responder (Count)
system.membus.pktCount_system.cpu.icache_port::system.mem_ctrls08.port     27535652                       # Packet count per connected requestor and responder (Count)
system.membus.pktCount_system.cpu.icache_port::system.mem_ctrls09.port        19962                       # Packet count per connected requestor and responder (Count)
system.membus.pktCount_system.cpu.icache_port::system.mem_ctrls10.port        15376                       # Packet count per connected requestor and responder (Count)
system.membus.pktCount_system.cpu.icache_port::system.mem_ctrls11.port    100038804                       # Packet count per connected requestor and responder (Count)
system.membus.pktCount_system.cpu.icache_port::system.mem_ctrls12.port     90054476                       # Packet count per connected requestor and responder (Count)
system.membus.pktCount_system.cpu.icache_port::system.mem_ctrls13.port     70021134                       # Packet count per connected requestor and responder (Count)
system.membus.pktCount_system.cpu.icache_port::system.mem_ctrls14.port     54017964                       # Packet count per connected requestor and responder (Count)
system.membus.pktCount_system.cpu.icache_port::system.mem_ctrls15.port     38019024                       # Packet count per connected requestor and responder (Count)
system.membus.pktCount_system.cpu.icache_port::total    419623914                       # Packet count per connected requestor and responder (Count)
system.membus.pktCount_system.cpu.dcache_port::system.mem_ctrls00.port     11420306                       # Packet count per connected requestor and responder (Count)
system.membus.pktCount_system.cpu.dcache_port::system.mem_ctrls01.port      9416014                       # Packet count per connected requestor and responder (Count)
system.membus.pktCount_system.cpu.dcache_port::system.mem_ctrls02.port      7415482                       # Packet count per connected requestor and responder (Count)
system.membus.pktCount_system.cpu.dcache_port::system.mem_ctrls03.port      7414458                       # Packet count per connected requestor and responder (Count)
system.membus.pktCount_system.cpu.dcache_port::system.mem_ctrls04.port      7417408                       # Packet count per connected requestor and responder (Count)
system.membus.pktCount_system.cpu.dcache_port::system.mem_ctrls05.port      7416594                       # Packet count per connected requestor and responder (Count)
system.membus.pktCount_system.cpu.dcache_port::system.mem_ctrls06.port      7414000                       # Packet count per connected requestor and responder (Count)
system.membus.pktCount_system.cpu.dcache_port::system.mem_ctrls07.port      7415344                       # Packet count per connected requestor and responder (Count)
system.membus.pktCount_system.cpu.dcache_port::system.mem_ctrls08.port      7417782                       # Packet count per connected requestor and responder (Count)
system.membus.pktCount_system.cpu.dcache_port::system.mem_ctrls09.port      7412766                       # Packet count per connected requestor and responder (Count)
system.membus.pktCount_system.cpu.dcache_port::system.mem_ctrls10.port     17416076                       # Packet count per connected requestor and responder (Count)
system.membus.pktCount_system.cpu.dcache_port::system.mem_ctrls11.port      7416114                       # Packet count per connected requestor and responder (Count)
system.membus.pktCount_system.cpu.dcache_port::system.mem_ctrls12.port      7413492                       # Packet count per connected requestor and responder (Count)
system.membus.pktCount_system.cpu.dcache_port::system.mem_ctrls13.port      7413066                       # Packet count per connected requestor and responder (Count)
system.membus.pktCount_system.cpu.dcache_port::system.mem_ctrls14.port      7413330                       # Packet count per connected requestor and responder (Count)
system.membus.pktCount_system.cpu.dcache_port::system.mem_ctrls15.port      7418676                       # Packet count per connected requestor and responder (Count)
system.membus.pktCount_system.cpu.dcache_port::total    134650908                       # Packet count per connected requestor and responder (Count)
system.membus.pktCount::total               554274822                       # Packet count per connected requestor and responder (Count)
system.membus.pktSize_system.cpu.icache_port::system.mem_ctrls00.port       100120                       # Cumulative packet size per connected requestor and responder (Byte)
system.membus.pktSize_system.cpu.icache_port::system.mem_ctrls01.port        64064                       # Cumulative packet size per connected requestor and responder (Byte)
system.membus.pktSize_system.cpu.icache_port::system.mem_ctrls02.port        58632                       # Cumulative packet size per connected requestor and responder (Byte)
system.membus.pktSize_system.cpu.icache_port::system.mem_ctrls03.port        90832                       # Cumulative packet size per connected requestor and responder (Byte)
system.membus.pktSize_system.cpu.icache_port::system.mem_ctrls04.port     72279216                       # Cumulative packet size per connected requestor and responder (Byte)
system.membus.pktSize_system.cpu.icache_port::system.mem_ctrls05.port       341240                       # Cumulative packet size per connected requestor and responder (Byte)
system.membus.pktSize_system.cpu.icache_port::system.mem_ctrls06.port     56478216                       # Cumulative packet size per connected requestor and responder (Byte)
system.membus.pktSize_system.cpu.icache_port::system.mem_ctrls07.port     30193768                       # Cumulative packet size per connected requestor and responder (Byte)
system.membus.pktSize_system.cpu.icache_port::system.mem_ctrls08.port    110142608                       # Cumulative packet size per connected requestor and responder (Byte)
system.membus.pktSize_system.cpu.icache_port::system.mem_ctrls09.port        79848                       # Cumulative packet size per connected requestor and responder (Byte)
system.membus.pktSize_system.cpu.icache_port::system.mem_ctrls10.port        61504                       # Cumulative packet size per connected requestor and responder (Byte)
system.membus.pktSize_system.cpu.icache_port::system.mem_ctrls11.port    400155216                       # Cumulative packet size per connected requestor and responder (Byte)
system.membus.pktSize_system.cpu.icache_port::system.mem_ctrls12.port    360217904                       # Cumulative packet size per connected requestor and responder (Byte)
system.membus.pktSize_system.cpu.icache_port::system.mem_ctrls13.port    280084536                       # Cumulative packet size per connected requestor and responder (Byte)
system.membus.pktSize_system.cpu.icache_port::system.mem_ctrls14.port    216071856                       # Cumulative packet size per connected requestor and responder (Byte)
system.membus.pktSize_system.cpu.icache_port::system.mem_ctrls15.port    152076096                       # Cumulative packet size per connected requestor and responder (Byte)
system.membus.pktSize_system.cpu.icache_port::total   1678495656                       # Cumulative packet size per connected requestor and responder (Byte)
system.membus.pktSize_system.cpu.dcache_port::system.mem_ctrls00.port     45127455                       # Cumulative packet size per connected requestor and responder (Byte)
system.membus.pktSize_system.cpu.dcache_port::system.mem_ctrls01.port     37109392                       # Cumulative packet size per connected requestor and responder (Byte)
system.membus.pktSize_system.cpu.dcache_port::system.mem_ctrls02.port     29105786                       # Cumulative packet size per connected requestor and responder (Byte)
system.membus.pktSize_system.cpu.dcache_port::system.mem_ctrls03.port     29102712                       # Cumulative packet size per connected requestor and responder (Byte)
system.membus.pktSize_system.cpu.dcache_port::system.mem_ctrls04.port     29112033                       # Cumulative packet size per connected requestor and responder (Byte)
system.membus.pktSize_system.cpu.dcache_port::system.mem_ctrls05.port     29108136                       # Cumulative packet size per connected requestor and responder (Byte)
system.membus.pktSize_system.cpu.dcache_port::system.mem_ctrls06.port     29101951                       # Cumulative packet size per connected requestor and responder (Byte)
system.membus.pktSize_system.cpu.dcache_port::system.mem_ctrls07.port     29106990                       # Cumulative packet size per connected requestor and responder (Byte)
system.membus.pktSize_system.cpu.dcache_port::system.mem_ctrls08.port     29109809                       # Cumulative packet size per connected requestor and responder (Byte)
system.membus.pktSize_system.cpu.dcache_port::system.mem_ctrls09.port     29095614                       # Cumulative packet size per connected requestor and responder (Byte)
system.membus.pktSize_system.cpu.dcache_port::system.mem_ctrls10.port     69105963                       # Cumulative packet size per connected requestor and responder (Byte)
system.membus.pktSize_system.cpu.dcache_port::system.mem_ctrls11.port     29107096                       # Cumulative packet size per connected requestor and responder (Byte)
system.membus.pktSize_system.cpu.dcache_port::system.mem_ctrls12.port     29099850                       # Cumulative packet size per connected requestor and responder (Byte)
system.membus.pktSize_system.cpu.dcache_port::system.mem_ctrls13.port     29098029                       # Cumulative packet size per connected requestor and responder (Byte)
system.membus.pktSize_system.cpu.dcache_port::system.mem_ctrls14.port     29101137                       # Cumulative packet size per connected requestor and responder (Byte)
system.membus.pktSize_system.cpu.dcache_port::system.mem_ctrls15.port     29119349                       # Cumulative packet size per connected requestor and responder (Byte)
system.membus.pktSize_system.cpu.dcache_port::total    529711302                       # Cumulative packet size per connected requestor and responder (Byte)
system.membus.pktSize::total               2208206958                       # Cumulative packet size per connected requestor and responder (Byte)
system.membus.snoops                                0                       # Total snoops (Count)
system.membus.snoopTraffic                          0                       # Total snoop traffic (Byte)
system.membus.snoopFanout::samples          277137411                       # Request fanout histogram (Count)
system.membus.snoopFanout::mean                     0                       # Request fanout histogram (Count)
system.membus.snoopFanout::stdev                    0                       # Request fanout histogram (Count)
system.membus.snoopFanout::underflows               0      0.00%      0.00% # Request fanout histogram (Count)
system.membus.snoopFanout::0                277137411    100.00%    100.00% # Request fanout histogram (Count)
system.membus.snoopFanout::1                        0      0.00%    100.00% # Request fanout histogram (Count)
system.membus.snoopFanout::overflows                0      0.00%    100.00% # Request fanout histogram (Count)
system.membus.snoopFanout::min_value                0                       # Request fanout histogram (Count)
system.membus.snoopFanout::max_value                0                       # Request fanout histogram (Count)
system.membus.snoopFanout::total            277137411                       # Request fanout histogram (Count)
system.membus.power_state.pwrStateResidencyTicks::UNDEFINED 17051695399000                       # Cumulative time (in ticks) in various power states (Tick)
system.membus.reqLayer10.occupancy        18977847000                       # Layer occupancy (ticks) (Tick)
system.membus.reqLayer10.utilization              0.0                       # Layer utilization (Ratio)
system.membus.reqLayer11.occupancy         5217093000                       # Layer occupancy (ticks) (Tick)
system.membus.reqLayer11.utilization              0.0                       # Layer utilization (Ratio)
system.membus.reqLayer12.occupancy        10217191000                       # Layer occupancy (ticks) (Tick)
system.membus.reqLayer12.utilization              0.0                       # Layer utilization (Ratio)
system.membus.reqLayer13.occupancy        55228610000                       # Layer occupancy (ticks) (Tick)
system.membus.reqLayer13.utilization              0.0                       # Layer utilization (Ratio)
system.membus.reqLayer14.occupancy        50234362000                       # Layer occupancy (ticks) (Tick)
system.membus.reqLayer14.utilization              0.0                       # Layer utilization (Ratio)
system.membus.reqLayer15.occupancy        40217772000                       # Layer occupancy (ticks) (Tick)
system.membus.reqLayer15.utilization              0.0                       # Layer utilization (Ratio)
system.membus.reqLayer16.occupancy        32216686000                       # Layer occupancy (ticks) (Tick)
system.membus.reqLayer16.utilization              0.0                       # Layer utilization (Ratio)
system.membus.reqLayer17.occupancy        24221348000                       # Layer occupancy (ticks) (Tick)
system.membus.reqLayer17.utilization              0.0                       # Layer utilization (Ratio)
system.membus.reqLayer2.occupancy          7224516000                       # Layer occupancy (ticks) (Tick)
system.membus.reqLayer2.utilization               0.0                       # Layer utilization (Ratio)
system.membus.reqLayer3.occupancy          6217497000                       # Layer occupancy (ticks) (Tick)
system.membus.reqLayer3.utilization               0.0                       # Layer utilization (Ratio)
system.membus.reqLayer4.occupancy          5216427000                       # Layer occupancy (ticks) (Tick)
system.membus.reqLayer4.utilization               0.0                       # Layer utilization (Ratio)
system.membus.reqLayer5.occupancy          5220087000                       # Layer occupancy (ticks) (Tick)
system.membus.reqLayer5.utilization               0.0                       # Layer utilization (Ratio)
system.membus.reqLayer6.occupancy         14245254000                       # Layer occupancy (ticks) (Tick)
system.membus.reqLayer6.utilization               0.0                       # Layer utilization (Ratio)
system.membus.reqLayer7.occupancy          5252335000                       # Layer occupancy (ticks) (Tick)
system.membus.reqLayer7.utilization               0.0                       # Layer utilization (Ratio)
system.membus.reqLayer8.occupancy         12267954000                       # Layer occupancy (ticks) (Tick)
system.membus.reqLayer8.utilization               0.0                       # Layer utilization (Ratio)
system.membus.reqLayer9.occupancy          8983277000                       # Layer occupancy (ticks) (Tick)
system.membus.reqLayer9.utilization               0.0                       # Layer utilization (Ratio)
system.membus.respLayer1.occupancy       419623914000                       # Layer occupancy (ticks) (Tick)
system.membus.respLayer1.utilization              0.0                       # Layer utilization (Ratio)
system.membus.respLayer2.occupancy       110630063000                       # Layer occupancy (ticks) (Tick)
system.membus.respLayer2.utilization              0.0                       # Layer utilization (Ratio)
system.membus.snoop_filter.totRequests              0                       # Total number of requests made to the snoop filter. (Count)
system.membus.snoop_filter.hitSingleRequests            0                       # Number of requests hitting in the snoop filter with a single holder of the requested data. (Count)
system.membus.snoop_filter.hitMultiRequests            0                       # Number of requests hitting in the snoop filter with multiple (>1) holders of the requested data. (Count)
system.membus.snoop_filter.totSnoops                0                       # Total number of snoops made to the snoop filter. (Count)
system.membus.snoop_filter.hitSingleSnoops            0                       # Number of snoops hitting in the snoop filter with a single holder of the requested data. (Count)
system.membus.snoop_filter.hitMultiSnoops            0                       # Number of snoops hitting in the snoop filter with multiple (>1) holders of the requested data. (Count)
system.voltage_domain.voltage                       1                       # Voltage in Volts (Volt)
system.workload.inst.arm                            0                       # number of arm instructions executed (Count)
system.workload.inst.quiesce                        0                       # number of quiesce instructions executed (Count)

---------- End Simulation Statistics   ----------
