
---------- Begin Simulation Statistics ----------
simSeconds                                   0.066992                       # Number of seconds simulated (Second)
simTicks                                  66991520500                       # Number of ticks simulated (Tick)
finalTick                                 66991520500                       # Number of ticks from beginning of simulation (restored from checkpoints and never reset) (Tick)
simFreq                                  1000000000000                       # The number of ticks per simulated second ((Tick/Second))
hostSeconds                                   1446.06                       # Real time elapsed on the host (Second)
hostTickRate                                 46326927                       # The number of ticks simulated per host second (ticks/s) ((Tick/Second))
hostMemory                                     931760                       # Number of bytes of host memory used (Byte)
simInsts                                    138346959                       # Number of instructions simulated (Count)
simOps                                      244623675                       # Number of ops (including micro ops) simulated (Count)
hostInstRate                                    95672                       # Simulator instruction rate (inst/s) ((Count/Second))
hostOpRate                                     169166                       # Simulator op (including micro ops) rate (op/s) ((Count/Second))
system.clk_domain.clock                          1000                       # Clock period in ticks (Tick)
system.cpu0.numCycles                       267966083                       # Number of cpu cycles simulated (Cycle)
system.cpu0.numWorkItemsStarted                     0                       # Number of work items this cpu started (Count)
system.cpu0.numWorkItemsCompleted                   0                       # Number of work items this cpu completed (Count)
system.cpu0.instsAdded                       55916271                       # Number of instructions added to the IQ (excludes non-spec) (Count)
system.cpu0.nonSpecInstsAdded                    1255                       # Number of non-speculative instructions added to the IQ (Count)
system.cpu0.instsIssued                      55899733                       # Number of instructions issued (Count)
system.cpu0.squashedInstsIssued                  1929                       # Number of squashed instructions issued (Count)
system.cpu0.squashedInstsExamined              590692                       # Number of squashed instructions iterated over during squash; mainly for profiling (Count)
system.cpu0.squashedOperandsExamined           801125                       # Number of squashed operands that are examined and possibly removed from graph (Count)
system.cpu0.squashedNonSpecRemoved                355                       # Number of squashed non-spec instructions that were removed (Count)
system.cpu0.numIssuedDist::samples          267459873                       # Number of insts issued each cycle (Count)
system.cpu0.numIssuedDist::mean              0.209002                       # Number of insts issued each cycle (Count)
system.cpu0.numIssuedDist::stdev             0.892238                       # Number of insts issued each cycle (Count)
system.cpu0.numIssuedDist::underflows               0      0.00%      0.00% # Number of insts issued each cycle (Count)
system.cpu0.numIssuedDist::0                247791949     92.65%     92.65% # Number of insts issued each cycle (Count)
system.cpu0.numIssuedDist::1                  6195533      2.32%     94.96% # Number of insts issued each cycle (Count)
system.cpu0.numIssuedDist::2                  4225406      1.58%     96.54% # Number of insts issued each cycle (Count)
system.cpu0.numIssuedDist::3                  2737347      1.02%     97.57% # Number of insts issued each cycle (Count)
system.cpu0.numIssuedDist::4                  2924773      1.09%     98.66% # Number of insts issued each cycle (Count)
system.cpu0.numIssuedDist::5                  1381793      0.52%     99.18% # Number of insts issued each cycle (Count)
system.cpu0.numIssuedDist::6                  1201461      0.45%     99.63% # Number of insts issued each cycle (Count)
system.cpu0.numIssuedDist::7                   788364      0.29%     99.92% # Number of insts issued each cycle (Count)
system.cpu0.numIssuedDist::8                   213247      0.08%    100.00% # Number of insts issued each cycle (Count)
system.cpu0.numIssuedDist::overflows                0      0.00%    100.00% # Number of insts issued each cycle (Count)
system.cpu0.numIssuedDist::min_value                0                       # Number of insts issued each cycle (Count)
system.cpu0.numIssuedDist::max_value                8                       # Number of insts issued each cycle (Count)
system.cpu0.numIssuedDist::total            267459873                       # Number of insts issued each cycle (Count)
system.cpu0.statFuBusy::No_OpClass                  0      0.00%      0.00% # attempts to use FU when none available (Count)
system.cpu0.statFuBusy::IntAlu                  13126      1.80%      1.80% # attempts to use FU when none available (Count)
system.cpu0.statFuBusy::IntMult                     0      0.00%      1.80% # attempts to use FU when none available (Count)
system.cpu0.statFuBusy::IntDiv                      0      0.00%      1.80% # attempts to use FU when none available (Count)
system.cpu0.statFuBusy::FloatAdd                    0      0.00%      1.80% # attempts to use FU when none available (Count)
system.cpu0.statFuBusy::FloatCmp                    0      0.00%      1.80% # attempts to use FU when none available (Count)
system.cpu0.statFuBusy::FloatCvt                    3      0.00%      1.80% # attempts to use FU when none available (Count)
system.cpu0.statFuBusy::FloatMult                   0      0.00%      1.80% # attempts to use FU when none available (Count)
system.cpu0.statFuBusy::FloatMultAcc                0      0.00%      1.80% # attempts to use FU when none available (Count)
system.cpu0.statFuBusy::FloatDiv                    0      0.00%      1.80% # attempts to use FU when none available (Count)
system.cpu0.statFuBusy::FloatMisc                   0      0.00%      1.80% # attempts to use FU when none available (Count)
system.cpu0.statFuBusy::FloatSqrt                   0      0.00%      1.80% # attempts to use FU when none available (Count)
system.cpu0.statFuBusy::SimdAdd                     2      0.00%      1.80% # attempts to use FU when none available (Count)
system.cpu0.statFuBusy::SimdAddAcc                  0      0.00%      1.80% # attempts to use FU when none available (Count)
system.cpu0.statFuBusy::SimdAlu                   116      0.02%      1.81% # attempts to use FU when none available (Count)
system.cpu0.statFuBusy::SimdCmp                     0      0.00%      1.81% # attempts to use FU when none available (Count)
system.cpu0.statFuBusy::SimdCvt                   101      0.01%      1.83% # attempts to use FU when none available (Count)
system.cpu0.statFuBusy::SimdMisc                   65      0.01%      1.84% # attempts to use FU when none available (Count)
system.cpu0.statFuBusy::SimdMult                    0      0.00%      1.84% # attempts to use FU when none available (Count)
system.cpu0.statFuBusy::SimdMultAcc                 0      0.00%      1.84% # attempts to use FU when none available (Count)
system.cpu0.statFuBusy::SimdShift                  17      0.00%      1.84% # attempts to use FU when none available (Count)
system.cpu0.statFuBusy::SimdShiftAcc                0      0.00%      1.84% # attempts to use FU when none available (Count)
system.cpu0.statFuBusy::SimdDiv                     0      0.00%      1.84% # attempts to use FU when none available (Count)
system.cpu0.statFuBusy::SimdSqrt                    0      0.00%      1.84% # attempts to use FU when none available (Count)
system.cpu0.statFuBusy::SimdFloatAdd           677474     92.71%     94.55% # attempts to use FU when none available (Count)
system.cpu0.statFuBusy::SimdFloatAlu                0      0.00%     94.55% # attempts to use FU when none available (Count)
system.cpu0.statFuBusy::SimdFloatCmp                0      0.00%     94.55% # attempts to use FU when none available (Count)
system.cpu0.statFuBusy::SimdFloatCvt                1      0.00%     94.55% # attempts to use FU when none available (Count)
system.cpu0.statFuBusy::SimdFloatDiv                0      0.00%     94.55% # attempts to use FU when none available (Count)
system.cpu0.statFuBusy::SimdFloatMisc               0      0.00%     94.55% # attempts to use FU when none available (Count)
system.cpu0.statFuBusy::SimdFloatMult               0      0.00%     94.55% # attempts to use FU when none available (Count)
system.cpu0.statFuBusy::SimdFloatMultAcc            0      0.00%     94.55% # attempts to use FU when none available (Count)
system.cpu0.statFuBusy::SimdFloatSqrt               0      0.00%     94.55% # attempts to use FU when none available (Count)
system.cpu0.statFuBusy::SimdReduceAdd               0      0.00%     94.55% # attempts to use FU when none available (Count)
system.cpu0.statFuBusy::SimdReduceAlu               0      0.00%     94.55% # attempts to use FU when none available (Count)
system.cpu0.statFuBusy::SimdReduceCmp               0      0.00%     94.55% # attempts to use FU when none available (Count)
system.cpu0.statFuBusy::SimdFloatReduceAdd            0      0.00%     94.55% # attempts to use FU when none available (Count)
system.cpu0.statFuBusy::SimdFloatReduceCmp            0      0.00%     94.55% # attempts to use FU when none available (Count)
system.cpu0.statFuBusy::SimdAes                     0      0.00%     94.55% # attempts to use FU when none available (Count)
system.cpu0.statFuBusy::SimdAesMix                  0      0.00%     94.55% # attempts to use FU when none available (Count)
system.cpu0.statFuBusy::SimdSha1Hash                0      0.00%     94.55% # attempts to use FU when none available (Count)
system.cpu0.statFuBusy::SimdSha1Hash2               0      0.00%     94.55% # attempts to use FU when none available (Count)
system.cpu0.statFuBusy::SimdSha256Hash              0      0.00%     94.55% # attempts to use FU when none available (Count)
system.cpu0.statFuBusy::SimdSha256Hash2             0      0.00%     94.55% # attempts to use FU when none available (Count)
system.cpu0.statFuBusy::SimdShaSigma2               0      0.00%     94.55% # attempts to use FU when none available (Count)
system.cpu0.statFuBusy::SimdShaSigma3               0      0.00%     94.55% # attempts to use FU when none available (Count)
system.cpu0.statFuBusy::SimdPredAlu                 0      0.00%     94.55% # attempts to use FU when none available (Count)
system.cpu0.statFuBusy::MemRead                  1833      0.25%     94.80% # attempts to use FU when none available (Count)
system.cpu0.statFuBusy::MemWrite                 1242      0.17%     94.97% # attempts to use FU when none available (Count)
system.cpu0.statFuBusy::FloatMemRead            11187      1.53%     96.50% # attempts to use FU when none available (Count)
system.cpu0.statFuBusy::FloatMemWrite           25547      3.50%    100.00% # attempts to use FU when none available (Count)
system.cpu0.statFuBusy::IprAccess                   0      0.00%    100.00% # attempts to use FU when none available (Count)
system.cpu0.statFuBusy::InstPrefetch                0      0.00%    100.00% # attempts to use FU when none available (Count)
system.cpu0.statIssuedInstType_0::No_OpClass         6733      0.01%      0.01% # Number of instructions issued per FU type, per thread (Count)
system.cpu0.statIssuedInstType_0::IntAlu     28543018     51.06%     51.07% # Number of instructions issued per FU type, per thread (Count)
system.cpu0.statIssuedInstType_0::IntMult          276      0.00%     51.07% # Number of instructions issued per FU type, per thread (Count)
system.cpu0.statIssuedInstType_0::IntDiv         2947      0.01%     51.08% # Number of instructions issued per FU type, per thread (Count)
system.cpu0.statIssuedInstType_0::FloatAdd      4131671      7.39%     58.47% # Number of instructions issued per FU type, per thread (Count)
system.cpu0.statIssuedInstType_0::FloatCmp            0      0.00%     58.47% # Number of instructions issued per FU type, per thread (Count)
system.cpu0.statIssuedInstType_0::FloatCvt          546      0.00%     58.47% # Number of instructions issued per FU type, per thread (Count)
system.cpu0.statIssuedInstType_0::FloatMult            0      0.00%     58.47% # Number of instructions issued per FU type, per thread (Count)
system.cpu0.statIssuedInstType_0::FloatMultAcc            0      0.00%     58.47% # Number of instructions issued per FU type, per thread (Count)
system.cpu0.statIssuedInstType_0::FloatDiv            0      0.00%     58.47% # Number of instructions issued per FU type, per thread (Count)
system.cpu0.statIssuedInstType_0::FloatMisc            0      0.00%     58.47% # Number of instructions issued per FU type, per thread (Count)
system.cpu0.statIssuedInstType_0::FloatSqrt            0      0.00%     58.47% # Number of instructions issued per FU type, per thread (Count)
system.cpu0.statIssuedInstType_0::SimdAdd         2646      0.00%     58.48% # Number of instructions issued per FU type, per thread (Count)
system.cpu0.statIssuedInstType_0::SimdAddAcc            0      0.00%     58.48% # Number of instructions issued per FU type, per thread (Count)
system.cpu0.statIssuedInstType_0::SimdAlu        27267      0.05%     58.52% # Number of instructions issued per FU type, per thread (Count)
system.cpu0.statIssuedInstType_0::SimdCmp           76      0.00%     58.52% # Number of instructions issued per FU type, per thread (Count)
system.cpu0.statIssuedInstType_0::SimdCvt         6343      0.01%     58.54% # Number of instructions issued per FU type, per thread (Count)
system.cpu0.statIssuedInstType_0::SimdMisc         4198      0.01%     58.54% # Number of instructions issued per FU type, per thread (Count)
system.cpu0.statIssuedInstType_0::SimdMult            0      0.00%     58.54% # Number of instructions issued per FU type, per thread (Count)
system.cpu0.statIssuedInstType_0::SimdMultAcc            0      0.00%     58.54% # Number of instructions issued per FU type, per thread (Count)
system.cpu0.statIssuedInstType_0::SimdShift         1817      0.00%     58.55% # Number of instructions issued per FU type, per thread (Count)
system.cpu0.statIssuedInstType_0::SimdShiftAcc            0      0.00%     58.55% # Number of instructions issued per FU type, per thread (Count)
system.cpu0.statIssuedInstType_0::SimdDiv            0      0.00%     58.55% # Number of instructions issued per FU type, per thread (Count)
system.cpu0.statIssuedInstType_0::SimdSqrt            0      0.00%     58.55% # Number of instructions issued per FU type, per thread (Count)
system.cpu0.statIssuedInstType_0::SimdFloatAdd      7135771     12.77%     71.31% # Number of instructions issued per FU type, per thread (Count)
system.cpu0.statIssuedInstType_0::SimdFloatAlu            0      0.00%     71.31% # Number of instructions issued per FU type, per thread (Count)
system.cpu0.statIssuedInstType_0::SimdFloatCmp           28      0.00%     71.31% # Number of instructions issued per FU type, per thread (Count)
system.cpu0.statIssuedInstType_0::SimdFloatCvt      3016184      5.40%     76.71% # Number of instructions issued per FU type, per thread (Count)
system.cpu0.statIssuedInstType_0::SimdFloatDiv           17      0.00%     76.71% # Number of instructions issued per FU type, per thread (Count)
system.cpu0.statIssuedInstType_0::SimdFloatMisc            0      0.00%     76.71% # Number of instructions issued per FU type, per thread (Count)
system.cpu0.statIssuedInstType_0::SimdFloatMult      1005422      1.80%     78.51% # Number of instructions issued per FU type, per thread (Count)
system.cpu0.statIssuedInstType_0::SimdFloatMultAcc            0      0.00%     78.51% # Number of instructions issued per FU type, per thread (Count)
system.cpu0.statIssuedInstType_0::SimdFloatSqrt            0      0.00%     78.51% # Number of instructions issued per FU type, per thread (Count)
system.cpu0.statIssuedInstType_0::SimdReduceAdd            0      0.00%     78.51% # Number of instructions issued per FU type, per thread (Count)
system.cpu0.statIssuedInstType_0::SimdReduceAlu            0      0.00%     78.51% # Number of instructions issued per FU type, per thread (Count)
system.cpu0.statIssuedInstType_0::SimdReduceCmp            0      0.00%     78.51% # Number of instructions issued per FU type, per thread (Count)
system.cpu0.statIssuedInstType_0::SimdFloatReduceAdd            0      0.00%     78.51% # Number of instructions issued per FU type, per thread (Count)
system.cpu0.statIssuedInstType_0::SimdFloatReduceCmp            0      0.00%     78.51% # Number of instructions issued per FU type, per thread (Count)
system.cpu0.statIssuedInstType_0::SimdAes            0      0.00%     78.51% # Number of instructions issued per FU type, per thread (Count)
system.cpu0.statIssuedInstType_0::SimdAesMix            0      0.00%     78.51% # Number of instructions issued per FU type, per thread (Count)
system.cpu0.statIssuedInstType_0::SimdSha1Hash            0      0.00%     78.51% # Number of instructions issued per FU type, per thread (Count)
system.cpu0.statIssuedInstType_0::SimdSha1Hash2            0      0.00%     78.51% # Number of instructions issued per FU type, per thread (Count)
system.cpu0.statIssuedInstType_0::SimdSha256Hash            0      0.00%     78.51% # Number of instructions issued per FU type, per thread (Count)
system.cpu0.statIssuedInstType_0::SimdSha256Hash2            0      0.00%     78.51% # Number of instructions issued per FU type, per thread (Count)
system.cpu0.statIssuedInstType_0::SimdShaSigma2            0      0.00%     78.51% # Number of instructions issued per FU type, per thread (Count)
system.cpu0.statIssuedInstType_0::SimdShaSigma3            0      0.00%     78.51% # Number of instructions issued per FU type, per thread (Count)
system.cpu0.statIssuedInstType_0::SimdPredAlu            0      0.00%     78.51% # Number of instructions issued per FU type, per thread (Count)
system.cpu0.statIssuedInstType_0::MemRead       175254      0.31%     78.82% # Number of instructions issued per FU type, per thread (Count)
system.cpu0.statIssuedInstType_0::MemWrite       185624      0.33%     79.15% # Number of instructions issued per FU type, per thread (Count)
system.cpu0.statIssuedInstType_0::FloatMemRead      9273168     16.59%     95.74% # Number of instructions issued per FU type, per thread (Count)
system.cpu0.statIssuedInstType_0::FloatMemWrite      2380727      4.26%    100.00% # Number of instructions issued per FU type, per thread (Count)
system.cpu0.statIssuedInstType_0::IprAccess            0      0.00%    100.00% # Number of instructions issued per FU type, per thread (Count)
system.cpu0.statIssuedInstType_0::InstPrefetch            0      0.00%    100.00% # Number of instructions issued per FU type, per thread (Count)
system.cpu0.statIssuedInstType_0::total      55899733                       # Number of instructions issued per FU type, per thread (Count)
system.cpu0.issueRate                        0.208607                       # Inst issue rate ((Count/Cycle))
system.cpu0.fuBusy                             730714                       # FU busy when requested (Count)
system.cpu0.fuBusyRate                       0.013072                       # FU busy rate (busy events/executed inst) ((Count/Count))
system.cpu0.intInstQueueReads               321281599                       # Number of integer instruction queue reads (Count)
system.cpu0.intInstQueueWrites               27547534                       # Number of integer instruction queue writes (Count)
system.cpu0.intInstQueueWakeupAccesses       26847178                       # Number of integer instruction queue wakeup accesses (Count)
system.cpu0.fpInstQueueReads                 58710383                       # Number of floating instruction queue reads (Count)
system.cpu0.fpInstQueueWrites                28961005                       # Number of floating instruction queue writes (Count)
system.cpu0.fpInstQueueWakeupAccesses        28885460                       # Number of floating instruction queue wakeup accesses (Count)
system.cpu0.vecInstQueueReads                       0                       # Number of vector instruction queue reads (Count)
system.cpu0.vecInstQueueWrites                      0                       # Number of vector instruction queue writes (Count)
system.cpu0.vecInstQueueWakeupAccesses              0                       # Number of vector instruction queue wakeup accesses (Count)
system.cpu0.intAluAccesses                   26911395                       # Number of integer alu accesses (Count)
system.cpu0.fpAluAccesses                    29712319                       # Number of floating point alu accesses (Count)
system.cpu0.vecAluAccesses                          0                       # Number of vector alu accesses (Count)
system.cpu0.numInsts                         55867703                       # Number of executed instructions (Count)
system.cpu0.numLoadInsts                      9442581                       # Number of load instructions executed (Count)
system.cpu0.numSquashedInsts                    32030                       # Number of squashed instructions skipped in execute (Count)
system.cpu0.numSwp                                  0                       # Number of swp insts executed (Count)
system.cpu0.numNop                                  0                       # Number of nop insts executed (Count)
system.cpu0.numRefs                          12007972                       # Number of memory reference insts executed (Count)
system.cpu0.numBranches                       5213120                       # Number of branches executed (Count)
system.cpu0.numStoreInsts                     2565391                       # Number of stores executed (Count)
system.cpu0.numRate                          0.208488                       # Inst execution rate ((Count/Cycle))
system.cpu0.timesIdled                           1988                       # Number of times that the entire CPU went into an idle state and unscheduled itself (Count)
system.cpu0.idleCycles                         506210                       # Total number of cycles that the CPU has spent unscheduled due to idling (Cycle)
system.cpu0.committedInsts                   30438587                       # Number of Instructions Simulated (Count)
system.cpu0.committedOps                     55326828                       # Number of Ops (including micro ops) Simulated (Count)
system.cpu0.cpi                              8.803499                       # CPI: Cycles Per Instruction ((Cycle/Count))
system.cpu0.totalCpi                         8.803499                       # CPI: Total CPI of All Threads ((Cycle/Count))
system.cpu0.ipc                              0.113591                       # IPC: Instructions Per Cycle ((Count/Cycle))
system.cpu0.totalIpc                         0.113591                       # IPC: Total IPC of All Threads ((Count/Cycle))
system.cpu0.intRegfileReads                  44186305                       # Number of integer regfile reads (Count)
system.cpu0.intRegfileWrites                 19285533                       # Number of integer regfile writes (Count)
system.cpu0.fpRegfileReads                   36951068                       # Number of floating regfile reads (Count)
system.cpu0.fpRegfileWrites                  23496097                       # Number of floating regfile writes (Count)
system.cpu0.ccRegfileReads                   32013857                       # number of cc regfile reads (Count)
system.cpu0.ccRegfileWrites                  14662537                       # number of cc regfile writes (Count)
system.cpu0.miscRegfileReads                 23456510                       # number of misc regfile reads (Count)
system.cpu0.miscRegfileWrites                     234                       # number of misc regfile writes (Count)
system.cpu0.MemDepUnit__0.insertedLoads       9346281                       # Number of loads inserted to the mem dependence unit. (Count)
system.cpu0.MemDepUnit__0.insertedStores      2571337                       # Number of stores inserted to the mem dependence unit. (Count)
system.cpu0.MemDepUnit__0.conflictingLoads       129526                       # Number of conflicting loads. (Count)
system.cpu0.MemDepUnit__0.conflictingStores       128030                       # Number of conflicting stores. (Count)
system.cpu0.MemDepUnit__1.insertedLoads             0                       # Number of loads inserted to the mem dependence unit. (Count)
system.cpu0.MemDepUnit__1.insertedStores            0                       # Number of stores inserted to the mem dependence unit. (Count)
system.cpu0.MemDepUnit__1.conflictingLoads            0                       # Number of conflicting loads. (Count)
system.cpu0.MemDepUnit__1.conflictingStores            0                       # Number of conflicting stores. (Count)
system.cpu0.MemDepUnit__2.insertedLoads             0                       # Number of loads inserted to the mem dependence unit. (Count)
system.cpu0.MemDepUnit__2.insertedStores            0                       # Number of stores inserted to the mem dependence unit. (Count)
system.cpu0.MemDepUnit__2.conflictingLoads            0                       # Number of conflicting loads. (Count)
system.cpu0.MemDepUnit__2.conflictingStores            0                       # Number of conflicting stores. (Count)
system.cpu0.MemDepUnit__3.insertedLoads             0                       # Number of loads inserted to the mem dependence unit. (Count)
system.cpu0.MemDepUnit__3.insertedStores            0                       # Number of stores inserted to the mem dependence unit. (Count)
system.cpu0.MemDepUnit__3.conflictingLoads            0                       # Number of conflicting loads. (Count)
system.cpu0.MemDepUnit__3.conflictingStores            0                       # Number of conflicting stores. (Count)
system.cpu0.branchPred.lookups                5270576                       # Number of BP lookups (Count)
system.cpu0.branchPred.condPredicted          5215459                       # Number of conditional branches predicted (Count)
system.cpu0.branchPred.condIncorrect             9215                       # Number of conditional branches incorrect (Count)
system.cpu0.branchPred.BTBLookups             2141998                       # Number of BTB lookups (Count)
system.cpu0.branchPred.BTBHits                2138356                       # Number of BTB hits (Count)
system.cpu0.branchPred.BTBHitRatio           0.998300                       # BTB Hit Ratio (Ratio)
system.cpu0.branchPred.RASUsed                  19407                       # Number of times the RAS was used to get a target. (Count)
system.cpu0.branchPred.RASIncorrect                 6                       # Number of incorrect RAS predictions. (Count)
system.cpu0.branchPred.indirectLookups          10811                       # Number of indirect predictor lookups. (Count)
system.cpu0.branchPred.indirectHits              6614                       # Number of indirect target hits. (Count)
system.cpu0.branchPred.indirectMisses            4197                       # Number of indirect misses. (Count)
system.cpu0.branchPred.indirectMispredicted          896                       # Number of mispredicted indirect branches. (Count)
system.cpu0.commit.commitSquashedInsts         478989                       # The number of squashed insts skipped by commit (Count)
system.cpu0.commit.commitNonSpecStalls            900                       # The number of times commit has been forced to stall to communicate backwards (Count)
system.cpu0.commit.branchMispredicts             9694                       # The number of times a branch was mispredicted (Count)
system.cpu0.commit.numCommittedDist::samples    267389607                       # Number of insts commited each cycle (Count)
system.cpu0.commit.numCommittedDist::mean     0.206915                       # Number of insts commited each cycle (Count)
system.cpu0.commit.numCommittedDist::stdev     1.147656                       # Number of insts commited each cycle (Count)
system.cpu0.commit.numCommittedDist::underflows            0      0.00%      0.00% # Number of insts commited each cycle (Count)
system.cpu0.commit.numCommittedDist::0      255474084     95.54%     95.54% # Number of insts commited each cycle (Count)
system.cpu0.commit.numCommittedDist::1        2901994      1.09%     96.63% # Number of insts commited each cycle (Count)
system.cpu0.commit.numCommittedDist::2        1253164      0.47%     97.10% # Number of insts commited each cycle (Count)
system.cpu0.commit.numCommittedDist::3        1469608      0.55%     97.65% # Number of insts commited each cycle (Count)
system.cpu0.commit.numCommittedDist::4         801584      0.30%     97.95% # Number of insts commited each cycle (Count)
system.cpu0.commit.numCommittedDist::5         320823      0.12%     98.07% # Number of insts commited each cycle (Count)
system.cpu0.commit.numCommittedDist::6         291439      0.11%     98.18% # Number of insts commited each cycle (Count)
system.cpu0.commit.numCommittedDist::7          64691      0.02%     98.20% # Number of insts commited each cycle (Count)
system.cpu0.commit.numCommittedDist::8        4812220      1.80%    100.00% # Number of insts commited each cycle (Count)
system.cpu0.commit.numCommittedDist::overflows            0      0.00%    100.00% # Number of insts commited each cycle (Count)
system.cpu0.commit.numCommittedDist::min_value            0                       # Number of insts commited each cycle (Count)
system.cpu0.commit.numCommittedDist::max_value            8                       # Number of insts commited each cycle (Count)
system.cpu0.commit.numCommittedDist::total    267389607                       # Number of insts commited each cycle (Count)
system.cpu0.commit.instsCommitted            30438587                       # Number of instructions committed (Count)
system.cpu0.commit.opsCommitted              55326828                       # Number of ops (including micro ops) committed (Count)
system.cpu0.commit.memRefs                   11810229                       # Number of memory references committed (Count)
system.cpu0.commit.loads                      9261234                       # Number of loads committed (Count)
system.cpu0.commit.amos                             0                       # Number of atomic instructions committed (Count)
system.cpu0.commit.membars                        444                       # Number of memory barriers committed (Count)
system.cpu0.commit.branches                   5175607                       # Number of branches committed (Count)
system.cpu0.commit.vectorInstructions               0                       # Number of committed Vector instructions. (Count)
system.cpu0.commit.floating                  28828127                       # Number of committed floating point instructions. (Count)
system.cpu0.commit.integer                   38009265                       # Number of committed integer instructions. (Count)
system.cpu0.commit.functionCalls                 9007                       # Number of function calls committed. (Count)
system.cpu0.commit.committedInstType_0::No_OpClass         2173      0.00%      0.00% # Class of committed instruction (Count)
system.cpu0.commit.committedInstType_0::IntAlu     28215616     51.00%     51.00% # Class of committed instruction (Count)
system.cpu0.commit.committedInstType_0::IntMult          252      0.00%     51.00% # Class of committed instruction (Count)
system.cpu0.commit.committedInstType_0::IntDiv         2655      0.00%     51.01% # Class of committed instruction (Count)
system.cpu0.commit.committedInstType_0::FloatAdd      4128352      7.46%     58.47% # Class of committed instruction (Count)
system.cpu0.commit.committedInstType_0::FloatCmp            0      0.00%     58.47% # Class of committed instruction (Count)
system.cpu0.commit.committedInstType_0::FloatCvt          416      0.00%     58.47% # Class of committed instruction (Count)
system.cpu0.commit.committedInstType_0::FloatMult            0      0.00%     58.47% # Class of committed instruction (Count)
system.cpu0.commit.committedInstType_0::FloatMultAcc            0      0.00%     58.47% # Class of committed instruction (Count)
system.cpu0.commit.committedInstType_0::FloatDiv            0      0.00%     58.47% # Class of committed instruction (Count)
system.cpu0.commit.committedInstType_0::FloatMisc            0      0.00%     58.47% # Class of committed instruction (Count)
system.cpu0.commit.committedInstType_0::FloatSqrt            0      0.00%     58.47% # Class of committed instruction (Count)
system.cpu0.commit.committedInstType_0::SimdAdd         2080      0.00%     58.47% # Class of committed instruction (Count)
system.cpu0.commit.committedInstType_0::SimdAddAcc            0      0.00%     58.47% # Class of committed instruction (Count)
system.cpu0.commit.committedInstType_0::SimdAlu        14505      0.03%     58.50% # Class of committed instruction (Count)
system.cpu0.commit.committedInstType_0::SimdCmp           72      0.00%     58.50% # Class of committed instruction (Count)
system.cpu0.commit.committedInstType_0::SimdCvt         4652      0.01%     58.51% # Class of committed instruction (Count)
system.cpu0.commit.committedInstType_0::SimdMisc         3593      0.01%     58.51% # Class of committed instruction (Count)
system.cpu0.commit.committedInstType_0::SimdMult            0      0.00%     58.51% # Class of committed instruction (Count)
system.cpu0.commit.committedInstType_0::SimdMultAcc            0      0.00%     58.51% # Class of committed instruction (Count)
system.cpu0.commit.committedInstType_0::SimdShift          932      0.00%     58.52% # Class of committed instruction (Count)
system.cpu0.commit.committedInstType_0::SimdShiftAcc            0      0.00%     58.52% # Class of committed instruction (Count)
system.cpu0.commit.committedInstType_0::SimdDiv            0      0.00%     58.52% # Class of committed instruction (Count)
system.cpu0.commit.committedInstType_0::SimdSqrt            0      0.00%     58.52% # Class of committed instruction (Count)
system.cpu0.commit.committedInstType_0::SimdFloatAdd      7130406     12.89%     71.40% # Class of committed instruction (Count)
system.cpu0.commit.committedInstType_0::SimdFloatAlu            0      0.00%     71.40% # Class of committed instruction (Count)
system.cpu0.commit.committedInstType_0::SimdFloatCmp           24      0.00%     71.40% # Class of committed instruction (Count)
system.cpu0.commit.committedInstType_0::SimdFloatCvt      3008122      5.44%     76.84% # Class of committed instruction (Count)
system.cpu0.commit.committedInstType_0::SimdFloatDiv           15      0.00%     76.84% # Class of committed instruction (Count)
system.cpu0.commit.committedInstType_0::SimdFloatMisc            0      0.00%     76.84% # Class of committed instruction (Count)
system.cpu0.commit.committedInstType_0::SimdFloatMult      1002734      1.81%     78.65% # Class of committed instruction (Count)
system.cpu0.commit.committedInstType_0::SimdFloatMultAcc            0      0.00%     78.65% # Class of committed instruction (Count)
system.cpu0.commit.committedInstType_0::SimdFloatSqrt            0      0.00%     78.65% # Class of committed instruction (Count)
system.cpu0.commit.committedInstType_0::SimdReduceAdd            0      0.00%     78.65% # Class of committed instruction (Count)
system.cpu0.commit.committedInstType_0::SimdReduceAlu            0      0.00%     78.65% # Class of committed instruction (Count)
system.cpu0.commit.committedInstType_0::SimdReduceCmp            0      0.00%     78.65% # Class of committed instruction (Count)
system.cpu0.commit.committedInstType_0::SimdFloatReduceAdd            0      0.00%     78.65% # Class of committed instruction (Count)
system.cpu0.commit.committedInstType_0::SimdFloatReduceCmp            0      0.00%     78.65% # Class of committed instruction (Count)
system.cpu0.commit.committedInstType_0::SimdAes            0      0.00%     78.65% # Class of committed instruction (Count)
system.cpu0.commit.committedInstType_0::SimdAesMix            0      0.00%     78.65% # Class of committed instruction (Count)
system.cpu0.commit.committedInstType_0::SimdSha1Hash            0      0.00%     78.65% # Class of committed instruction (Count)
system.cpu0.commit.committedInstType_0::SimdSha1Hash2            0      0.00%     78.65% # Class of committed instruction (Count)
system.cpu0.commit.committedInstType_0::SimdSha256Hash            0      0.00%     78.65% # Class of committed instruction (Count)
system.cpu0.commit.committedInstType_0::SimdSha256Hash2            0      0.00%     78.65% # Class of committed instruction (Count)
system.cpu0.commit.committedInstType_0::SimdShaSigma2            0      0.00%     78.65% # Class of committed instruction (Count)
system.cpu0.commit.committedInstType_0::SimdShaSigma3            0      0.00%     78.65% # Class of committed instruction (Count)
system.cpu0.commit.committedInstType_0::SimdPredAlu            0      0.00%     78.65% # Class of committed instruction (Count)
system.cpu0.commit.committedInstType_0::MemRead       115473      0.21%     78.86% # Class of committed instruction (Count)
system.cpu0.commit.committedInstType_0::MemWrite       168951      0.31%     79.17% # Class of committed instruction (Count)
system.cpu0.commit.committedInstType_0::FloatMemRead      9145761     16.53%     95.70% # Class of committed instruction (Count)
system.cpu0.commit.committedInstType_0::FloatMemWrite      2380044      4.30%    100.00% # Class of committed instruction (Count)
system.cpu0.commit.committedInstType_0::IprAccess            0      0.00%    100.00% # Class of committed instruction (Count)
system.cpu0.commit.committedInstType_0::InstPrefetch            0      0.00%    100.00% # Class of committed instruction (Count)
system.cpu0.commit.committedInstType_0::total     55326828                       # Class of committed instruction (Count)
system.cpu0.commit.commitEligibleSamples      4812220                       # number cycles where commit BW limit reached (Cycle)
system.cpu0.dcache.demandHits::cpu0.data      7592284                       # number of demand (read+write) hits (Count)
system.cpu0.dcache.demandHits::total          7592284                       # number of demand (read+write) hits (Count)
system.cpu0.dcache.overallHits::cpu0.data      7592284                       # number of overall hits (Count)
system.cpu0.dcache.overallHits::total         7592284                       # number of overall hits (Count)
system.cpu0.dcache.demandMisses::cpu0.data      4273798                       # number of demand (read+write) misses (Count)
system.cpu0.dcache.demandMisses::total        4273798                       # number of demand (read+write) misses (Count)
system.cpu0.dcache.overallMisses::cpu0.data      4273798                       # number of overall misses (Count)
system.cpu0.dcache.overallMisses::total       4273798                       # number of overall misses (Count)
system.cpu0.dcache.demandMissLatency::cpu0.data 371721485971                       # number of demand (read+write) miss ticks (Tick)
system.cpu0.dcache.demandMissLatency::total 371721485971                       # number of demand (read+write) miss ticks (Tick)
system.cpu0.dcache.overallMissLatency::cpu0.data 371721485971                       # number of overall miss ticks (Tick)
system.cpu0.dcache.overallMissLatency::total 371721485971                       # number of overall miss ticks (Tick)
system.cpu0.dcache.demandAccesses::cpu0.data     11866082                       # number of demand (read+write) accesses (Count)
system.cpu0.dcache.demandAccesses::total     11866082                       # number of demand (read+write) accesses (Count)
system.cpu0.dcache.overallAccesses::cpu0.data     11866082                       # number of overall (read+write) accesses (Count)
system.cpu0.dcache.overallAccesses::total     11866082                       # number of overall (read+write) accesses (Count)
system.cpu0.dcache.demandMissRate::cpu0.data     0.360169                       # miss rate for demand accesses (Ratio)
system.cpu0.dcache.demandMissRate::total     0.360169                       # miss rate for demand accesses (Ratio)
system.cpu0.dcache.overallMissRate::cpu0.data     0.360169                       # miss rate for overall accesses (Ratio)
system.cpu0.dcache.overallMissRate::total     0.360169                       # miss rate for overall accesses (Ratio)
system.cpu0.dcache.demandAvgMissLatency::cpu0.data 86976.849624                       # average overall miss latency in ticks ((Tick/Count))
system.cpu0.dcache.demandAvgMissLatency::total 86976.849624                       # average overall miss latency in ticks ((Tick/Count))
system.cpu0.dcache.overallAvgMissLatency::cpu0.data 86976.849624                       # average overall miss latency ((Tick/Count))
system.cpu0.dcache.overallAvgMissLatency::total 86976.849624                       # average overall miss latency ((Tick/Count))
system.cpu0.dcache.blockedCycles::no_mshrs     32908026                       # number of cycles access was blocked (Cycle)
system.cpu0.dcache.blockedCycles::no_targets         6588                       # number of cycles access was blocked (Cycle)
system.cpu0.dcache.blockedCauses::no_mshrs       167720                       # number of times access was blocked (Count)
system.cpu0.dcache.blockedCauses::no_targets           45                       # number of times access was blocked (Count)
system.cpu0.dcache.avgBlocked::no_mshrs    196.208121                       # average number of cycles each access was blocked ((Cycle/Count))
system.cpu0.dcache.avgBlocked::no_targets   146.400000                       # average number of cycles each access was blocked ((Cycle/Count))
system.cpu0.dcache.writebacks::writebacks       314769                       # number of writebacks (Count)
system.cpu0.dcache.writebacks::total           314769                       # number of writebacks (Count)
system.cpu0.dcache.demandMshrHits::cpu0.data      3204797                       # number of demand (read+write) MSHR hits (Count)
system.cpu0.dcache.demandMshrHits::total      3204797                       # number of demand (read+write) MSHR hits (Count)
system.cpu0.dcache.overallMshrHits::cpu0.data      3204797                       # number of overall MSHR hits (Count)
system.cpu0.dcache.overallMshrHits::total      3204797                       # number of overall MSHR hits (Count)
system.cpu0.dcache.demandMshrMisses::cpu0.data      1069001                       # number of demand (read+write) MSHR misses (Count)
system.cpu0.dcache.demandMshrMisses::total      1069001                       # number of demand (read+write) MSHR misses (Count)
system.cpu0.dcache.overallMshrMisses::cpu0.data      1069001                       # number of overall MSHR misses (Count)
system.cpu0.dcache.overallMshrMisses::total      1069001                       # number of overall MSHR misses (Count)
system.cpu0.dcache.demandMshrMissLatency::cpu0.data 154566742973                       # number of demand (read+write) MSHR miss ticks (Tick)
system.cpu0.dcache.demandMshrMissLatency::total 154566742973                       # number of demand (read+write) MSHR miss ticks (Tick)
system.cpu0.dcache.overallMshrMissLatency::cpu0.data 154566742973                       # number of overall MSHR miss ticks (Tick)
system.cpu0.dcache.overallMshrMissLatency::total 154566742973                       # number of overall MSHR miss ticks (Tick)
system.cpu0.dcache.demandMshrMissRate::cpu0.data     0.090089                       # mshr miss ratio for demand accesses (Ratio)
system.cpu0.dcache.demandMshrMissRate::total     0.090089                       # mshr miss ratio for demand accesses (Ratio)
system.cpu0.dcache.overallMshrMissRate::cpu0.data     0.090089                       # mshr miss ratio for overall accesses (Ratio)
system.cpu0.dcache.overallMshrMissRate::total     0.090089                       # mshr miss ratio for overall accesses (Ratio)
system.cpu0.dcache.demandAvgMshrMissLatency::cpu0.data 144589.895588                       # average overall mshr miss latency ((Tick/Count))
system.cpu0.dcache.demandAvgMshrMissLatency::total 144589.895588                       # average overall mshr miss latency ((Tick/Count))
system.cpu0.dcache.overallAvgMshrMissLatency::cpu0.data 144589.895588                       # average overall mshr miss latency ((Tick/Count))
system.cpu0.dcache.overallAvgMshrMissLatency::total 144589.895588                       # average overall mshr miss latency ((Tick/Count))
system.cpu0.dcache.replacements               1067706                       # number of replacements (Count)
system.cpu0.dcache.LockedRMWReadReq.hits::cpu0.data          179                       # number of LockedRMWReadReq hits (Count)
system.cpu0.dcache.LockedRMWReadReq.hits::total          179                       # number of LockedRMWReadReq hits (Count)
system.cpu0.dcache.LockedRMWReadReq.misses::cpu0.data           43                       # number of LockedRMWReadReq misses (Count)
system.cpu0.dcache.LockedRMWReadReq.misses::total           43                       # number of LockedRMWReadReq misses (Count)
system.cpu0.dcache.LockedRMWReadReq.missLatency::cpu0.data       670500                       # number of LockedRMWReadReq miss ticks (Tick)
system.cpu0.dcache.LockedRMWReadReq.missLatency::total       670500                       # number of LockedRMWReadReq miss ticks (Tick)
system.cpu0.dcache.LockedRMWReadReq.accesses::cpu0.data          222                       # number of LockedRMWReadReq accesses(hits+misses) (Count)
system.cpu0.dcache.LockedRMWReadReq.accesses::total          222                       # number of LockedRMWReadReq accesses(hits+misses) (Count)
system.cpu0.dcache.LockedRMWReadReq.missRate::cpu0.data     0.193694                       # miss rate for LockedRMWReadReq accesses (Ratio)
system.cpu0.dcache.LockedRMWReadReq.missRate::total     0.193694                       # miss rate for LockedRMWReadReq accesses (Ratio)
system.cpu0.dcache.LockedRMWReadReq.avgMissLatency::cpu0.data 15593.023256                       # average LockedRMWReadReq miss latency ((Tick/Count))
system.cpu0.dcache.LockedRMWReadReq.avgMissLatency::total 15593.023256                       # average LockedRMWReadReq miss latency ((Tick/Count))
system.cpu0.dcache.LockedRMWReadReq.mshrMisses::cpu0.data           43                       # number of LockedRMWReadReq MSHR misses (Count)
system.cpu0.dcache.LockedRMWReadReq.mshrMisses::total           43                       # number of LockedRMWReadReq MSHR misses (Count)
system.cpu0.dcache.LockedRMWReadReq.mshrMissLatency::cpu0.data      1839251                       # number of LockedRMWReadReq MSHR miss ticks (Tick)
system.cpu0.dcache.LockedRMWReadReq.mshrMissLatency::total      1839251                       # number of LockedRMWReadReq MSHR miss ticks (Tick)
system.cpu0.dcache.LockedRMWReadReq.mshrMissRate::cpu0.data     0.193694                       # mshr miss rate for LockedRMWReadReq accesses (Ratio)
system.cpu0.dcache.LockedRMWReadReq.mshrMissRate::total     0.193694                       # mshr miss rate for LockedRMWReadReq accesses (Ratio)
system.cpu0.dcache.LockedRMWReadReq.avgMshrMissLatency::cpu0.data 42773.279070                       # average LockedRMWReadReq mshr miss latency ((Tick/Count))
system.cpu0.dcache.LockedRMWReadReq.avgMshrMissLatency::total 42773.279070                       # average LockedRMWReadReq mshr miss latency ((Tick/Count))
system.cpu0.dcache.LockedRMWWriteReq.hits::cpu0.data          222                       # number of LockedRMWWriteReq hits (Count)
system.cpu0.dcache.LockedRMWWriteReq.hits::total          222                       # number of LockedRMWWriteReq hits (Count)
system.cpu0.dcache.LockedRMWWriteReq.accesses::cpu0.data          222                       # number of LockedRMWWriteReq accesses(hits+misses) (Count)
system.cpu0.dcache.LockedRMWWriteReq.accesses::total          222                       # number of LockedRMWWriteReq accesses(hits+misses) (Count)
system.cpu0.dcache.ReadReq.hits::cpu0.data      5342438                       # number of ReadReq hits (Count)
system.cpu0.dcache.ReadReq.hits::total        5342438                       # number of ReadReq hits (Count)
system.cpu0.dcache.ReadReq.misses::cpu0.data      3974849                       # number of ReadReq misses (Count)
system.cpu0.dcache.ReadReq.misses::total      3974849                       # number of ReadReq misses (Count)
system.cpu0.dcache.ReadReq.missLatency::cpu0.data 320058397500                       # number of ReadReq miss ticks (Tick)
system.cpu0.dcache.ReadReq.missLatency::total 320058397500                       # number of ReadReq miss ticks (Tick)
system.cpu0.dcache.ReadReq.accesses::cpu0.data      9317287                       # number of ReadReq accesses(hits+misses) (Count)
system.cpu0.dcache.ReadReq.accesses::total      9317287                       # number of ReadReq accesses(hits+misses) (Count)
system.cpu0.dcache.ReadReq.missRate::cpu0.data     0.426610                       # miss rate for ReadReq accesses (Ratio)
system.cpu0.dcache.ReadReq.missRate::total     0.426610                       # miss rate for ReadReq accesses (Ratio)
system.cpu0.dcache.ReadReq.avgMissLatency::cpu0.data 80520.894630                       # average ReadReq miss latency ((Tick/Count))
system.cpu0.dcache.ReadReq.avgMissLatency::total 80520.894630                       # average ReadReq miss latency ((Tick/Count))
system.cpu0.dcache.ReadReq.mshrHits::cpu0.data      3204783                       # number of ReadReq MSHR hits (Count)
system.cpu0.dcache.ReadReq.mshrHits::total      3204783                       # number of ReadReq MSHR hits (Count)
system.cpu0.dcache.ReadReq.mshrMisses::cpu0.data       770066                       # number of ReadReq MSHR misses (Count)
system.cpu0.dcache.ReadReq.mshrMisses::total       770066                       # number of ReadReq MSHR misses (Count)
system.cpu0.dcache.ReadReq.mshrMissLatency::cpu0.data 103053813750                       # number of ReadReq MSHR miss ticks (Tick)
system.cpu0.dcache.ReadReq.mshrMissLatency::total 103053813750                       # number of ReadReq MSHR miss ticks (Tick)
system.cpu0.dcache.ReadReq.mshrMissRate::cpu0.data     0.082649                       # mshr miss rate for ReadReq accesses (Ratio)
system.cpu0.dcache.ReadReq.mshrMissRate::total     0.082649                       # mshr miss rate for ReadReq accesses (Ratio)
system.cpu0.dcache.ReadReq.avgMshrMissLatency::cpu0.data 133824.651069                       # average ReadReq mshr miss latency ((Tick/Count))
system.cpu0.dcache.ReadReq.avgMshrMissLatency::total 133824.651069                       # average ReadReq mshr miss latency ((Tick/Count))
system.cpu0.dcache.WriteReq.hits::cpu0.data      2249846                       # number of WriteReq hits (Count)
system.cpu0.dcache.WriteReq.hits::total       2249846                       # number of WriteReq hits (Count)
system.cpu0.dcache.WriteReq.misses::cpu0.data       298949                       # number of WriteReq misses (Count)
system.cpu0.dcache.WriteReq.misses::total       298949                       # number of WriteReq misses (Count)
system.cpu0.dcache.WriteReq.missLatency::cpu0.data  51663088471                       # number of WriteReq miss ticks (Tick)
system.cpu0.dcache.WriteReq.missLatency::total  51663088471                       # number of WriteReq miss ticks (Tick)
system.cpu0.dcache.WriteReq.accesses::cpu0.data      2548795                       # number of WriteReq accesses(hits+misses) (Count)
system.cpu0.dcache.WriteReq.accesses::total      2548795                       # number of WriteReq accesses(hits+misses) (Count)
system.cpu0.dcache.WriteReq.missRate::cpu0.data     0.117290                       # miss rate for WriteReq accesses (Ratio)
system.cpu0.dcache.WriteReq.missRate::total     0.117290                       # miss rate for WriteReq accesses (Ratio)
system.cpu0.dcache.WriteReq.avgMissLatency::cpu0.data 172815.725997                       # average WriteReq miss latency ((Tick/Count))
system.cpu0.dcache.WriteReq.avgMissLatency::total 172815.725997                       # average WriteReq miss latency ((Tick/Count))
system.cpu0.dcache.WriteReq.mshrHits::cpu0.data           14                       # number of WriteReq MSHR hits (Count)
system.cpu0.dcache.WriteReq.mshrHits::total           14                       # number of WriteReq MSHR hits (Count)
system.cpu0.dcache.WriteReq.mshrMisses::cpu0.data       298935                       # number of WriteReq MSHR misses (Count)
system.cpu0.dcache.WriteReq.mshrMisses::total       298935                       # number of WriteReq MSHR misses (Count)
system.cpu0.dcache.WriteReq.mshrMissLatency::cpu0.data  51512929223                       # number of WriteReq MSHR miss ticks (Tick)
system.cpu0.dcache.WriteReq.mshrMissLatency::total  51512929223                       # number of WriteReq MSHR miss ticks (Tick)
system.cpu0.dcache.WriteReq.mshrMissRate::cpu0.data     0.117285                       # mshr miss rate for WriteReq accesses (Ratio)
system.cpu0.dcache.WriteReq.mshrMissRate::total     0.117285                       # mshr miss rate for WriteReq accesses (Ratio)
system.cpu0.dcache.WriteReq.avgMshrMissLatency::cpu0.data 172321.505421                       # average WriteReq mshr miss latency ((Tick/Count))
system.cpu0.dcache.WriteReq.avgMshrMissLatency::total 172321.505421                       # average WriteReq mshr miss latency ((Tick/Count))
system.cpu0.dcache.power_state.pwrStateResidencyTicks::UNDEFINED  66991520500                       # Cumulative time (in ticks) in various power states (Tick)
system.cpu0.dcache.tags.tagsInUse         1022.977772                       # Average ticks per tags in use ((Tick/Count))
system.cpu0.dcache.tags.totalRefs             8661730                       # Total number of references to valid blocks. (Count)
system.cpu0.dcache.tags.sampledRefs           1068958                       # Sample count of references to valid blocks. (Count)
system.cpu0.dcache.tags.avgRefs              8.102966                       # Average number of references to valid blocks. ((Count/Count))
system.cpu0.dcache.tags.warmupTick             154000                       # The tick when the warmup percentage was hit. (Tick)
system.cpu0.dcache.tags.occupancies::cpu0.data  1022.977772                       # Average occupied blocks per tick, per requestor ((Count/Tick))
system.cpu0.dcache.tags.avgOccs::cpu0.data     0.999002                       # Average percentage of cache occupancy ((Ratio/Tick))
system.cpu0.dcache.tags.avgOccs::total       0.999002                       # Average percentage of cache occupancy ((Ratio/Tick))
system.cpu0.dcache.tags.occupanciesTaskId::1024         1024                       # Occupied blocks per task id (Count)
system.cpu0.dcache.tags.ageTaskId_1024::0          127                       # Occupied blocks per task id, per block age (Count)
system.cpu0.dcache.tags.ageTaskId_1024::1          896                       # Occupied blocks per task id, per block age (Count)
system.cpu0.dcache.tags.ageTaskId_1024::4            1                       # Occupied blocks per task id, per block age (Count)
system.cpu0.dcache.tags.ratioOccsTaskId::1024            1                       # Ratio of occupied blocks and all blocks, per task id (Ratio)
system.cpu0.dcache.tags.tagAccesses          24802010                       # Number of tag accesses (Count)
system.cpu0.dcache.tags.dataAccesses         24802010                       # Number of data accesses (Count)
system.cpu0.dcache.tags.power_state.pwrStateResidencyTicks::UNDEFINED  66991520500                       # Cumulative time (in ticks) in various power states (Tick)
system.cpu0.decode.idleCycles                 3230173                       # Number of cycles decode is idle (Cycle)
system.cpu0.decode.blockedCycles            256774937                       # Number of cycles decode is blocked (Cycle)
system.cpu0.decode.runCycles                  4474151                       # Number of cycles decode is running (Cycle)
system.cpu0.decode.unblockCycles              2967585                       # Number of cycles decode is unblocking (Cycle)
system.cpu0.decode.squashCycles                 13027                       # Number of cycles decode is squashing (Cycle)
system.cpu0.decode.branchResolved             2134217                       # Number of times decode resolved a branch (Count)
system.cpu0.decode.branchMispred                 1349                       # Number of times decode detected a branch misprediction (Count)
system.cpu0.decode.decodedInsts              56012752                       # Number of instructions handled by decode (Count)
system.cpu0.decode.squashedInsts                 6532                       # Number of squashed instructions handled by decode (Count)
system.cpu0.dtb_walker_cache.blockedCycles::no_mshrs            0                       # number of cycles access was blocked (Cycle)
system.cpu0.dtb_walker_cache.blockedCycles::no_targets            0                       # number of cycles access was blocked (Cycle)
system.cpu0.dtb_walker_cache.blockedCauses::no_mshrs            0                       # number of times access was blocked (Count)
system.cpu0.dtb_walker_cache.blockedCauses::no_targets            0                       # number of times access was blocked (Count)
system.cpu0.dtb_walker_cache.avgBlocked::no_mshrs          nan                       # average number of cycles each access was blocked ((Cycle/Count))
system.cpu0.dtb_walker_cache.avgBlocked::no_targets          nan                       # average number of cycles each access was blocked ((Cycle/Count))
system.cpu0.dtb_walker_cache.replacements            0                       # number of replacements (Count)
system.cpu0.dtb_walker_cache.power_state.pwrStateResidencyTicks::UNDEFINED  66991520500                       # Cumulative time (in ticks) in various power states (Tick)
system.cpu0.dtb_walker_cache.tags.tagsInUse            0                       # Average ticks per tags in use ((Tick/Count))
system.cpu0.dtb_walker_cache.tags.totalRefs            0                       # Total number of references to valid blocks. (Count)
system.cpu0.dtb_walker_cache.tags.sampledRefs            0                       # Sample count of references to valid blocks. (Count)
system.cpu0.dtb_walker_cache.tags.avgRefs          nan                       # Average number of references to valid blocks. ((Count/Count))
system.cpu0.dtb_walker_cache.tags.warmupTick            0                       # The tick when the warmup percentage was hit. (Tick)
system.cpu0.dtb_walker_cache.tags.tagAccesses            0                       # Number of tag accesses (Count)
system.cpu0.dtb_walker_cache.tags.dataAccesses            0                       # Number of data accesses (Count)
system.cpu0.dtb_walker_cache.tags.power_state.pwrStateResidencyTicks::UNDEFINED  66991520500                       # Cumulative time (in ticks) in various power states (Tick)
system.cpu0.fetch.icacheStallCycles           4594162                       # Number of cycles fetch is stalled on an Icache miss (Cycle)
system.cpu0.fetch.insts                      30839757                       # Number of instructions fetch has processed (Count)
system.cpu0.fetch.branches                    5270576                       # Number of branches that fetch encountered (Count)
system.cpu0.fetch.predictedBranches           2164377                       # Number of branches that fetch has predicted taken (Count)
system.cpu0.fetch.cycles                    262835699                       # Number of cycles fetch has run and was not squashing or blocked (Cycle)
system.cpu0.fetch.squashCycles                  28714                       # Number of cycles fetch has spent squashing (Cycle)
system.cpu0.fetch.miscStallCycles                2664                       # Number of cycles fetch has spent waiting on interrupts, or bad addresses, or out of MSHRs (Cycle)
system.cpu0.fetch.pendingTrapStallCycles        12922                       # Number of stall cycles due to pending traps (Cycle)
system.cpu0.fetch.icacheWaitRetryStallCycles           69                       # Number of stall cycles due to full MSHR (Cycle)
system.cpu0.fetch.cacheLines                  4457040                       # Number of cache lines fetched (Count)
system.cpu0.fetch.icacheSquashes                 3384                       # Number of outstanding Icache misses that were squashed (Count)
system.cpu0.fetch.nisnDist::samples         267459873                       # Number of instructions fetched each cycle (Total) (Count)
system.cpu0.fetch.nisnDist::mean             0.209835                       # Number of instructions fetched each cycle (Total) (Count)
system.cpu0.fetch.nisnDist::stdev            1.206555                       # Number of instructions fetched each cycle (Total) (Count)
system.cpu0.fetch.nisnDist::underflows              0      0.00%      0.00% # Number of instructions fetched each cycle (Total) (Count)
system.cpu0.fetch.nisnDist::0               258019315     96.47%     96.47% # Number of instructions fetched each cycle (Total) (Count)
system.cpu0.fetch.nisnDist::1                 1008372      0.38%     96.85% # Number of instructions fetched each cycle (Total) (Count)
system.cpu0.fetch.nisnDist::2                  518876      0.19%     97.04% # Number of instructions fetched each cycle (Total) (Count)
system.cpu0.fetch.nisnDist::3                 1275825      0.48%     97.52% # Number of instructions fetched each cycle (Total) (Count)
system.cpu0.fetch.nisnDist::4                  187396      0.07%     97.59% # Number of instructions fetched each cycle (Total) (Count)
system.cpu0.fetch.nisnDist::5                  274592      0.10%     97.69% # Number of instructions fetched each cycle (Total) (Count)
system.cpu0.fetch.nisnDist::6                  320509      0.12%     97.81% # Number of instructions fetched each cycle (Total) (Count)
system.cpu0.fetch.nisnDist::7                  636615      0.24%     98.05% # Number of instructions fetched each cycle (Total) (Count)
system.cpu0.fetch.nisnDist::8                 5218373      1.95%    100.00% # Number of instructions fetched each cycle (Total) (Count)
system.cpu0.fetch.nisnDist::overflows               0      0.00%    100.00% # Number of instructions fetched each cycle (Total) (Count)
system.cpu0.fetch.nisnDist::min_value               0                       # Number of instructions fetched each cycle (Total) (Count)
system.cpu0.fetch.nisnDist::max_value               8                       # Number of instructions fetched each cycle (Total) (Count)
system.cpu0.fetch.nisnDist::total           267459873                       # Number of instructions fetched each cycle (Total) (Count)
system.cpu0.fetch.branchRate                 0.019669                       # Number of branch fetches per cycle (Ratio)
system.cpu0.fetch.rate                       0.115088                       # Number of inst fetches per cycle ((Count/Cycle))
system.cpu0.icache.demandHits::cpu0.inst      4453561                       # number of demand (read+write) hits (Count)
system.cpu0.icache.demandHits::total          4453561                       # number of demand (read+write) hits (Count)
system.cpu0.icache.overallHits::cpu0.inst      4453561                       # number of overall hits (Count)
system.cpu0.icache.overallHits::total         4453561                       # number of overall hits (Count)
system.cpu0.icache.demandMisses::cpu0.inst         3478                       # number of demand (read+write) misses (Count)
system.cpu0.icache.demandMisses::total           3478                       # number of demand (read+write) misses (Count)
system.cpu0.icache.overallMisses::cpu0.inst         3478                       # number of overall misses (Count)
system.cpu0.icache.overallMisses::total          3478                       # number of overall misses (Count)
system.cpu0.icache.demandMissLatency::cpu0.inst    273329498                       # number of demand (read+write) miss ticks (Tick)
system.cpu0.icache.demandMissLatency::total    273329498                       # number of demand (read+write) miss ticks (Tick)
system.cpu0.icache.overallMissLatency::cpu0.inst    273329498                       # number of overall miss ticks (Tick)
system.cpu0.icache.overallMissLatency::total    273329498                       # number of overall miss ticks (Tick)
system.cpu0.icache.demandAccesses::cpu0.inst      4457039                       # number of demand (read+write) accesses (Count)
system.cpu0.icache.demandAccesses::total      4457039                       # number of demand (read+write) accesses (Count)
system.cpu0.icache.overallAccesses::cpu0.inst      4457039                       # number of overall (read+write) accesses (Count)
system.cpu0.icache.overallAccesses::total      4457039                       # number of overall (read+write) accesses (Count)
system.cpu0.icache.demandMissRate::cpu0.inst     0.000780                       # miss rate for demand accesses (Ratio)
system.cpu0.icache.demandMissRate::total     0.000780                       # miss rate for demand accesses (Ratio)
system.cpu0.icache.overallMissRate::cpu0.inst     0.000780                       # miss rate for overall accesses (Ratio)
system.cpu0.icache.overallMissRate::total     0.000780                       # miss rate for overall accesses (Ratio)
system.cpu0.icache.demandAvgMissLatency::cpu0.inst 78588.124784                       # average overall miss latency in ticks ((Tick/Count))
system.cpu0.icache.demandAvgMissLatency::total 78588.124784                       # average overall miss latency in ticks ((Tick/Count))
system.cpu0.icache.overallAvgMissLatency::cpu0.inst 78588.124784                       # average overall miss latency ((Tick/Count))
system.cpu0.icache.overallAvgMissLatency::total 78588.124784                       # average overall miss latency ((Tick/Count))
system.cpu0.icache.blockedCycles::no_mshrs         4800                       # number of cycles access was blocked (Cycle)
system.cpu0.icache.blockedCycles::no_targets            0                       # number of cycles access was blocked (Cycle)
system.cpu0.icache.blockedCauses::no_mshrs           15                       # number of times access was blocked (Count)
system.cpu0.icache.blockedCauses::no_targets            0                       # number of times access was blocked (Count)
system.cpu0.icache.avgBlocked::no_mshrs           320                       # average number of cycles each access was blocked ((Cycle/Count))
system.cpu0.icache.avgBlocked::no_targets          nan                       # average number of cycles each access was blocked ((Cycle/Count))
system.cpu0.icache.writebacks::writebacks         2221                       # number of writebacks (Count)
system.cpu0.icache.writebacks::total             2221                       # number of writebacks (Count)
system.cpu0.icache.demandMshrHits::cpu0.inst          743                       # number of demand (read+write) MSHR hits (Count)
system.cpu0.icache.demandMshrHits::total          743                       # number of demand (read+write) MSHR hits (Count)
system.cpu0.icache.overallMshrHits::cpu0.inst          743                       # number of overall MSHR hits (Count)
system.cpu0.icache.overallMshrHits::total          743                       # number of overall MSHR hits (Count)
system.cpu0.icache.demandMshrMisses::cpu0.inst         2735                       # number of demand (read+write) MSHR misses (Count)
system.cpu0.icache.demandMshrMisses::total         2735                       # number of demand (read+write) MSHR misses (Count)
system.cpu0.icache.overallMshrMisses::cpu0.inst         2735                       # number of overall MSHR misses (Count)
system.cpu0.icache.overallMshrMisses::total         2735                       # number of overall MSHR misses (Count)
system.cpu0.icache.demandMshrMissLatency::cpu0.inst    221986999                       # number of demand (read+write) MSHR miss ticks (Tick)
system.cpu0.icache.demandMshrMissLatency::total    221986999                       # number of demand (read+write) MSHR miss ticks (Tick)
system.cpu0.icache.overallMshrMissLatency::cpu0.inst    221986999                       # number of overall MSHR miss ticks (Tick)
system.cpu0.icache.overallMshrMissLatency::total    221986999                       # number of overall MSHR miss ticks (Tick)
system.cpu0.icache.demandMshrMissRate::cpu0.inst     0.000614                       # mshr miss ratio for demand accesses (Ratio)
system.cpu0.icache.demandMshrMissRate::total     0.000614                       # mshr miss ratio for demand accesses (Ratio)
system.cpu0.icache.overallMshrMissRate::cpu0.inst     0.000614                       # mshr miss ratio for overall accesses (Ratio)
system.cpu0.icache.overallMshrMissRate::total     0.000614                       # mshr miss ratio for overall accesses (Ratio)
system.cpu0.icache.demandAvgMshrMissLatency::cpu0.inst 81165.264717                       # average overall mshr miss latency ((Tick/Count))
system.cpu0.icache.demandAvgMshrMissLatency::total 81165.264717                       # average overall mshr miss latency ((Tick/Count))
system.cpu0.icache.overallAvgMshrMissLatency::cpu0.inst 81165.264717                       # average overall mshr miss latency ((Tick/Count))
system.cpu0.icache.overallAvgMshrMissLatency::total 81165.264717                       # average overall mshr miss latency ((Tick/Count))
system.cpu0.icache.replacements                  2221                       # number of replacements (Count)
system.cpu0.icache.ReadReq.hits::cpu0.inst      4453561                       # number of ReadReq hits (Count)
system.cpu0.icache.ReadReq.hits::total        4453561                       # number of ReadReq hits (Count)
system.cpu0.icache.ReadReq.misses::cpu0.inst         3478                       # number of ReadReq misses (Count)
system.cpu0.icache.ReadReq.misses::total         3478                       # number of ReadReq misses (Count)
system.cpu0.icache.ReadReq.missLatency::cpu0.inst    273329498                       # number of ReadReq miss ticks (Tick)
system.cpu0.icache.ReadReq.missLatency::total    273329498                       # number of ReadReq miss ticks (Tick)
system.cpu0.icache.ReadReq.accesses::cpu0.inst      4457039                       # number of ReadReq accesses(hits+misses) (Count)
system.cpu0.icache.ReadReq.accesses::total      4457039                       # number of ReadReq accesses(hits+misses) (Count)
system.cpu0.icache.ReadReq.missRate::cpu0.inst     0.000780                       # miss rate for ReadReq accesses (Ratio)
system.cpu0.icache.ReadReq.missRate::total     0.000780                       # miss rate for ReadReq accesses (Ratio)
system.cpu0.icache.ReadReq.avgMissLatency::cpu0.inst 78588.124784                       # average ReadReq miss latency ((Tick/Count))
system.cpu0.icache.ReadReq.avgMissLatency::total 78588.124784                       # average ReadReq miss latency ((Tick/Count))
system.cpu0.icache.ReadReq.mshrHits::cpu0.inst          743                       # number of ReadReq MSHR hits (Count)
system.cpu0.icache.ReadReq.mshrHits::total          743                       # number of ReadReq MSHR hits (Count)
system.cpu0.icache.ReadReq.mshrMisses::cpu0.inst         2735                       # number of ReadReq MSHR misses (Count)
system.cpu0.icache.ReadReq.mshrMisses::total         2735                       # number of ReadReq MSHR misses (Count)
system.cpu0.icache.ReadReq.mshrMissLatency::cpu0.inst    221986999                       # number of ReadReq MSHR miss ticks (Tick)
system.cpu0.icache.ReadReq.mshrMissLatency::total    221986999                       # number of ReadReq MSHR miss ticks (Tick)
system.cpu0.icache.ReadReq.mshrMissRate::cpu0.inst     0.000614                       # mshr miss rate for ReadReq accesses (Ratio)
system.cpu0.icache.ReadReq.mshrMissRate::total     0.000614                       # mshr miss rate for ReadReq accesses (Ratio)
system.cpu0.icache.ReadReq.avgMshrMissLatency::cpu0.inst 81165.264717                       # average ReadReq mshr miss latency ((Tick/Count))
system.cpu0.icache.ReadReq.avgMshrMissLatency::total 81165.264717                       # average ReadReq mshr miss latency ((Tick/Count))
system.cpu0.icache.power_state.pwrStateResidencyTicks::UNDEFINED  66991520500                       # Cumulative time (in ticks) in various power states (Tick)
system.cpu0.icache.tags.tagsInUse          511.720006                       # Average ticks per tags in use ((Tick/Count))
system.cpu0.icache.tags.totalRefs             4456295                       # Total number of references to valid blocks. (Count)
system.cpu0.icache.tags.sampledRefs              2734                       # Sample count of references to valid blocks. (Count)
system.cpu0.icache.tags.avgRefs           1629.954279                       # Average number of references to valid blocks. ((Count/Count))
system.cpu0.icache.tags.warmupTick              80000                       # The tick when the warmup percentage was hit. (Tick)
system.cpu0.icache.tags.occupancies::cpu0.inst   511.720006                       # Average occupied blocks per tick, per requestor ((Count/Tick))
system.cpu0.icache.tags.avgOccs::cpu0.inst     0.999453                       # Average percentage of cache occupancy ((Ratio/Tick))
system.cpu0.icache.tags.avgOccs::total       0.999453                       # Average percentage of cache occupancy ((Ratio/Tick))
system.cpu0.icache.tags.occupanciesTaskId::1024          511                       # Occupied blocks per task id (Count)
system.cpu0.icache.tags.ageTaskId_1024::0          102                       # Occupied blocks per task id, per block age (Count)
system.cpu0.icache.tags.ageTaskId_1024::1           80                       # Occupied blocks per task id, per block age (Count)
system.cpu0.icache.tags.ageTaskId_1024::4          329                       # Occupied blocks per task id, per block age (Count)
system.cpu0.icache.tags.ratioOccsTaskId::1024     0.998047                       # Ratio of occupied blocks and all blocks, per task id (Ratio)
system.cpu0.icache.tags.tagAccesses           8916812                       # Number of tag accesses (Count)
system.cpu0.icache.tags.dataAccesses          8916812                       # Number of data accesses (Count)
system.cpu0.icache.tags.power_state.pwrStateResidencyTicks::UNDEFINED  66991520500                       # Cumulative time (in ticks) in various power states (Tick)
system.cpu0.iew.idleCycles                          0                       # Number of cycles IEW is idle (Cycle)
system.cpu0.iew.squashCycles                    13027                       # Number of cycles IEW is squashing (Cycle)
system.cpu0.iew.blockCycles                  36839887                       # Number of cycles IEW is blocking (Cycle)
system.cpu0.iew.unblockCycles                24699512                       # Number of cycles IEW is unblocking (Cycle)
system.cpu0.iew.dispatchedInsts              55917526                       # Number of instructions dispatched to IQ (Count)
system.cpu0.iew.dispSquashedInsts                1048                       # Number of squashed instructions skipped by dispatch (Count)
system.cpu0.iew.dispLoadInsts                 9346281                       # Number of dispatched load instructions (Count)
system.cpu0.iew.dispStoreInsts                2571337                       # Number of dispatched store instructions (Count)
system.cpu0.iew.dispNonSpecInsts                  579                       # Number of dispatched non-speculative instructions (Count)
system.cpu0.iew.iqFullEvents                   280661                       # Number of times the IQ has become full, causing a stall (Count)
system.cpu0.iew.lsqFullEvents                24379054                       # Number of times the LSQ has become full, causing a stall (Count)
system.cpu0.iew.memOrderViolationEvents           333                       # Number of memory order violations (Count)
system.cpu0.iew.predictedTakenIncorrect          2782                       # Number of branches that were predicted taken incorrectly (Count)
system.cpu0.iew.predictedNotTakenIncorrect         8316                       # Number of branches that were predicted not taken incorrectly (Count)
system.cpu0.iew.branchMispredicts               11098                       # Number of branch mispredicts detected at execute (Count)
system.cpu0.iew.instsToCommit                55741533                       # Cumulative count of insts sent to commit (Count)
system.cpu0.iew.writebackCount               55732638                       # Cumulative count of insts written-back (Count)
system.cpu0.iew.producerInst                 39797968                       # Number of instructions producing a value (Count)
system.cpu0.iew.consumerInst                 65042152                       # Number of instructions consuming a value (Count)
system.cpu0.iew.wbRate                       0.207984                       # Insts written-back per cycle ((Count/Cycle))
system.cpu0.iew.wbFanout                     0.611880                       # Average fanout of values written-back ((Count/Count))
system.cpu0.interrupts.clk_domain.clock          4000                       # Clock period in ticks (Tick)
system.cpu0.itb_walker_cache.blockedCycles::no_mshrs            0                       # number of cycles access was blocked (Cycle)
system.cpu0.itb_walker_cache.blockedCycles::no_targets            0                       # number of cycles access was blocked (Cycle)
system.cpu0.itb_walker_cache.blockedCauses::no_mshrs            0                       # number of times access was blocked (Count)
system.cpu0.itb_walker_cache.blockedCauses::no_targets            0                       # number of times access was blocked (Count)
system.cpu0.itb_walker_cache.avgBlocked::no_mshrs          nan                       # average number of cycles each access was blocked ((Cycle/Count))
system.cpu0.itb_walker_cache.avgBlocked::no_targets          nan                       # average number of cycles each access was blocked ((Cycle/Count))
system.cpu0.itb_walker_cache.replacements            0                       # number of replacements (Count)
system.cpu0.itb_walker_cache.power_state.pwrStateResidencyTicks::UNDEFINED  66991520500                       # Cumulative time (in ticks) in various power states (Tick)
system.cpu0.itb_walker_cache.tags.tagsInUse            0                       # Average ticks per tags in use ((Tick/Count))
system.cpu0.itb_walker_cache.tags.totalRefs            0                       # Total number of references to valid blocks. (Count)
[...]
system.membus.pktCount_system.cpu1.dcache.mem_side_port::total      2062683                       # Packet count per connected requestor and responder (Count)
system.membus.pktCount_system.cpu2.icache.mem_side_port::system.mem_ctrls.port          253                       # Packet count per connected requestor and responder (Count)
system.membus.pktCount_system.cpu2.icache.mem_side_port::total          253                       # Packet count per connected requestor and responder (Count)
system.membus.pktCount_system.cpu2.dcache.mem_side_port::system.mem_ctrls.port      2062601                       # Packet count per connected requestor and responder (Count)
system.membus.pktCount_system.cpu2.dcache.mem_side_port::total      2062601                       # Packet count per connected requestor and responder (Count)
system.membus.pktCount_system.cpu3.icache.mem_side_port::system.mem_ctrls.port          233                       # Packet count per connected requestor and responder (Count)
system.membus.pktCount_system.cpu3.icache.mem_side_port::total          233                       # Packet count per connected requestor and responder (Count)
system.membus.pktCount_system.cpu3.dcache.mem_side_port::system.mem_ctrls.port      2062556                       # Packet count per connected requestor and responder (Count)
system.membus.pktCount_system.cpu3.dcache.mem_side_port::total      2062556                       # Packet count per connected requestor and responder (Count)
system.membus.pktCount_system.cpu4.icache.mem_side_port::system.mem_ctrls.port          136                       # Packet count per connected requestor and responder (Count)
system.membus.pktCount_system.cpu4.icache.mem_side_port::total          136                       # Packet count per connected requestor and responder (Count)
system.membus.pktCount_system.cpu4.dcache.mem_side_port::system.mem_ctrls.port      2062352                       # Packet count per connected requestor and responder (Count)
system.membus.pktCount_system.cpu4.dcache.mem_side_port::total      2062352                       # Packet count per connected requestor and responder (Count)
system.membus.pktCount_system.cpu5.icache.mem_side_port::system.mem_ctrls.port          120                       # Packet count per connected requestor and responder (Count)
system.membus.pktCount_system.cpu5.icache.mem_side_port::total          120                       # Packet count per connected requestor and responder (Count)
system.membus.pktCount_system.cpu5.dcache.mem_side_port::system.mem_ctrls.port      2062311                       # Packet count per connected requestor and responder (Count)
system.membus.pktCount_system.cpu5.dcache.mem_side_port::total      2062311                       # Packet count per connected requestor and responder (Count)
system.membus.pktCount_system.cpu6.icache.mem_side_port::system.mem_ctrls.port          120                       # Packet count per connected requestor and responder (Count)
system.membus.pktCount_system.cpu6.icache.mem_side_port::total          120                       # Packet count per connected requestor and responder (Count)
system.membus.pktCount_system.cpu6.dcache.mem_side_port::system.mem_ctrls.port      2062315                       # Packet count per connected requestor and responder (Count)
system.membus.pktCount_system.cpu6.dcache.mem_side_port::total      2062315                       # Packet count per connected requestor and responder (Count)
system.membus.pktCount_system.cpu7.icache.mem_side_port::system.mem_ctrls.port          120                       # Packet count per connected requestor and responder (Count)
system.membus.pktCount_system.cpu7.icache.mem_side_port::total          120                       # Packet count per connected requestor and responder (Count)
system.membus.pktCount_system.cpu7.dcache.mem_side_port::system.mem_ctrls.port      2062325                       # Packet count per connected requestor and responder (Count)
system.membus.pktCount_system.cpu7.dcache.mem_side_port::total      2062325                       # Packet count per connected requestor and responder (Count)
system.membus.pktCount::total                17650676                       # Packet count per connected requestor and responder (Count)
system.membus.pktSize_system.cpu0.icache.mem_side_port::system.mem_ctrls.port       316992                       # Cumulative packet size per connected requestor and responder (Byte)
system.membus.pktSize_system.cpu0.icache.mem_side_port::total       316992                       # Cumulative packet size per connected requestor and responder (Byte)
system.membus.pktSize_system.cpu0.dcache.mem_side_port::system.mem_ctrls.port     88488128                       # Cumulative packet size per connected requestor and responder (Byte)
system.membus.pktSize_system.cpu0.dcache.mem_side_port::total     88488128                       # Cumulative packet size per connected requestor and responder (Byte)
system.membus.pktSize_system.cpu1.icache.mem_side_port::system.mem_ctrls.port         8256                       # Cumulative packet size per connected requestor and responder (Byte)
system.membus.pktSize_system.cpu1.icache.mem_side_port::total         8256                       # Cumulative packet size per connected requestor and responder (Byte)
system.membus.pktSize_system.cpu1.dcache.mem_side_port::system.mem_ctrls.port     64017024                       # Cumulative packet size per connected requestor and responder (Byte)
system.membus.pktSize_system.cpu1.dcache.mem_side_port::total     64017024                       # Cumulative packet size per connected requestor and responder (Byte)
system.membus.pktSize_system.cpu2.icache.mem_side_port::system.mem_ctrls.port         8128                       # Cumulative packet size per connected requestor and responder (Byte)
system.membus.pktSize_system.cpu2.icache.mem_side_port::total         8128                       # Cumulative packet size per connected requestor and responder (Byte)
system.membus.pktSize_system.cpu2.dcache.mem_side_port::system.mem_ctrls.port     64015808                       # Cumulative packet size per connected requestor and responder (Byte)
system.membus.pktSize_system.cpu2.dcache.mem_side_port::total     64015808                       # Cumulative packet size per connected requestor and responder (Byte)
system.membus.pktSize_system.cpu3.icache.mem_side_port::system.mem_ctrls.port         7488                       # Cumulative packet size per connected requestor and responder (Byte)
system.membus.pktSize_system.cpu3.icache.mem_side_port::total         7488                       # Cumulative packet size per connected requestor and responder (Byte)
system.membus.pktSize_system.cpu3.dcache.mem_side_port::system.mem_ctrls.port     64013568                       # Cumulative packet size per connected requestor and responder (Byte)
system.membus.pktSize_system.cpu3.dcache.mem_side_port::total     64013568                       # Cumulative packet size per connected requestor and responder (Byte)
system.membus.pktSize_system.cpu4.icache.mem_side_port::system.mem_ctrls.port         4352                       # Cumulative packet size per connected requestor and responder (Byte)
system.membus.pktSize_system.cpu4.icache.mem_side_port::total         4352                       # Cumulative packet size per connected requestor and responder (Byte)
system.membus.pktSize_system.cpu4.dcache.mem_side_port::system.mem_ctrls.port     64008384                       # Cumulative packet size per connected requestor and responder (Byte)
system.membus.pktSize_system.cpu4.dcache.mem_side_port::total     64008384                       # Cumulative packet size per connected requestor and responder (Byte)
system.membus.pktSize_system.cpu5.icache.mem_side_port::system.mem_ctrls.port         3840                       # Cumulative packet size per connected requestor and responder (Byte)
system.membus.pktSize_system.cpu5.icache.mem_side_port::total         3840                       # Cumulative packet size per connected requestor and responder (Byte)
system.membus.pktSize_system.cpu5.dcache.mem_side_port::system.mem_ctrls.port     64007040                       # Cumulative packet size per connected requestor and responder (Byte)
system.membus.pktSize_system.cpu5.dcache.mem_side_port::total     64007040                       # Cumulative packet size per connected requestor and responder (Byte)
system.membus.pktSize_system.cpu6.icache.mem_side_port::system.mem_ctrls.port         3840                       # Cumulative packet size per connected requestor and responder (Byte)
system.membus.pktSize_system.cpu6.icache.mem_side_port::total         3840                       # Cumulative packet size per connected requestor and responder (Byte)
system.membus.pktSize_system.cpu6.dcache.mem_side_port::system.mem_ctrls.port     64007488                       # Cumulative packet size per connected requestor and responder (Byte)
system.membus.pktSize_system.cpu6.dcache.mem_side_port::total     64007488                       # Cumulative packet size per connected requestor and responder (Byte)
system.membus.pktSize_system.cpu7.icache.mem_side_port::system.mem_ctrls.port         3840                       # Cumulative packet size per connected requestor and responder (Byte)
system.membus.pktSize_system.cpu7.icache.mem_side_port::total         3840                       # Cumulative packet size per connected requestor and responder (Byte)
system.membus.pktSize_system.cpu7.dcache.mem_side_port::system.mem_ctrls.port     64007680                       # Cumulative packet size per connected requestor and responder (Byte)
system.membus.pktSize_system.cpu7.dcache.mem_side_port::total     64007680                       # Cumulative packet size per connected requestor and responder (Byte)
system.membus.pktSize::total                536921856                       # Cumulative packet size per connected requestor and responder (Byte)
system.membus.snoops                             2565                       # Total snoops (Count)
system.membus.snoopTraffic                     152256                       # Total snoop traffic (Byte)
system.membus.snoopFanout::samples            5888039                       # Request fanout histogram (Count)
system.membus.snoopFanout::mean              0.003118                       # Request fanout histogram (Count)
system.membus.snoopFanout::stdev             0.102365                       # Request fanout histogram (Count)
system.membus.snoopFanout::underflows               0      0.00%      0.00% # Request fanout histogram (Count)
system.membus.snoopFanout::0                  5877284     99.82%     99.82% # Request fanout histogram (Count)
system.membus.snoopFanout::1                     8667      0.15%     99.96% # Request fanout histogram (Count)
system.membus.snoopFanout::2                      425      0.01%     99.97% # Request fanout histogram (Count)
system.membus.snoopFanout::3                      369      0.01%     99.98% # Request fanout histogram (Count)
system.membus.snoopFanout::4                      222      0.00%     99.98% # Request fanout histogram (Count)
system.membus.snoopFanout::5                      218      0.00%     99.99% # Request fanout histogram (Count)
system.membus.snoopFanout::6                      240      0.00%     99.99% # Request fanout histogram (Count)
system.membus.snoopFanout::7                      604      0.01%    100.00% # Request fanout histogram (Count)
system.membus.snoopFanout::8                        6      0.00%    100.00% # Request fanout histogram (Count)
system.membus.snoopFanout::9                        1      0.00%    100.00% # Request fanout histogram (Count)
system.membus.snoopFanout::10                       1      0.00%    100.00% # Request fanout histogram (Count)
system.membus.snoopFanout::11                       1      0.00%    100.00% # Request fanout histogram (Count)
system.membus.snoopFanout::12                       1      0.00%    100.00% # Request fanout histogram (Count)
system.membus.snoopFanout::13                       0      0.00%    100.00% # Request fanout histogram (Count)
system.membus.snoopFanout::14                       0      0.00%    100.00% # Request fanout histogram (Count)
system.membus.snoopFanout::15                       0      0.00%    100.00% # Request fanout histogram (Count)
system.membus.snoopFanout::16                       0      0.00%    100.00% # Request fanout histogram (Count)
system.membus.snoopFanout::17                       0      0.00%    100.00% # Request fanout histogram (Count)
system.membus.snoopFanout::18                       0      0.00%    100.00% # Request fanout histogram (Count)
system.membus.snoopFanout::19                       0      0.00%    100.00% # Request fanout histogram (Count)
system.membus.snoopFanout::20                       0      0.00%    100.00% # Request fanout histogram (Count)
system.membus.snoopFanout::21                       0      0.00%    100.00% # Request fanout histogram (Count)
system.membus.snoopFanout::22                       0      0.00%    100.00% # Request fanout histogram (Count)
system.membus.snoopFanout::23                       0      0.00%    100.00% # Request fanout histogram (Count)
system.membus.snoopFanout::24                       0      0.00%    100.00% # Request fanout histogram (Count)
system.membus.snoopFanout::25                       0      0.00%    100.00% # Request fanout histogram (Count)
system.membus.snoopFanout::26                       0      0.00%    100.00% # Request fanout histogram (Count)
system.membus.snoopFanout::27                       0      0.00%    100.00% # Request fanout histogram (Count)
system.membus.snoopFanout::28                       0      0.00%    100.00% # Request fanout histogram (Count)
system.membus.snoopFanout::29                       0      0.00%    100.00% # Request fanout histogram (Count)
system.membus.snoopFanout::30                       0      0.00%    100.00% # Request fanout histogram (Count)
system.membus.snoopFanout::31                       0      0.00%    100.00% # Request fanout histogram (Count)
system.membus.snoopFanout::32                       0      0.00%    100.00% # Request fanout histogram (Count)
system.membus.snoopFanout::overflows                0      0.00%    100.00% # Request fanout histogram (Count)
system.membus.snoopFanout::min_value                0                       # Request fanout histogram (Count)
system.membus.snoopFanout::max_value               12                       # Request fanout histogram (Count)
system.membus.snoopFanout::total              5888039                       # Request fanout histogram (Count)
system.membus.power_state.pwrStateResidencyTicks::UNDEFINED  66991520500                       # Cumulative time (in ticks) in various power states (Tick)
system.membus.reqLayer16.occupancy        23408791498                       # Layer occupancy (ticks) (Tick)
system.membus.reqLayer16.utilization              0.3                       # Layer utilization (Ratio)
system.membus.respLayer1.occupancy           13931750                       # Layer occupancy (ticks) (Tick)
system.membus.respLayer1.utilization              0.0                       # Layer utilization (Ratio)
system.membus.respLayer11.occupancy            679750                       # Layer occupancy (ticks) (Tick)
system.membus.respLayer11.utilization             0.0                       # Layer utilization (Ratio)
system.membus.respLayer12.occupancy        3484766374                       # Layer occupancy (ticks) (Tick)
system.membus.respLayer12.utilization             0.1                       # Layer utilization (Ratio)
system.membus.respLayer16.occupancy            622000                       # Layer occupancy (ticks) (Tick)
system.membus.respLayer16.utilization             0.0                       # Layer utilization (Ratio)
system.membus.respLayer17.occupancy        3484273725                       # Layer occupancy (ticks) (Tick)
system.membus.respLayer17.utilization             0.1                       # Layer utilization (Ratio)
system.membus.respLayer2.occupancy         5453363331                       # Layer occupancy (ticks) (Tick)
system.membus.respLayer2.utilization              0.1                       # Layer utilization (Ratio)
system.membus.respLayer21.occupancy            364500                       # Layer occupancy (ticks) (Tick)
system.membus.respLayer21.utilization             0.0                       # Layer utilization (Ratio)
system.membus.respLayer22.occupancy        3484810849                       # Layer occupancy (ticks) (Tick)
system.membus.respLayer22.utilization             0.1                       # Layer utilization (Ratio)
system.membus.respLayer26.occupancy            322250                       # Layer occupancy (ticks) (Tick)
system.membus.respLayer26.utilization             0.0                       # Layer utilization (Ratio)
system.membus.respLayer27.occupancy        3484510599                       # Layer occupancy (ticks) (Tick)
system.membus.respLayer27.utilization             0.1                       # Layer utilization (Ratio)
system.membus.respLayer31.occupancy            324750                       # Layer occupancy (ticks) (Tick)
system.membus.respLayer31.utilization             0.0                       # Layer utilization (Ratio)
system.membus.respLayer32.occupancy        3484532991                       # Layer occupancy (ticks) (Tick)
system.membus.respLayer32.utilization             0.1                       # Layer utilization (Ratio)
system.membus.respLayer36.occupancy            320000                       # Layer occupancy (ticks) (Tick)
system.membus.respLayer36.utilization             0.0                       # Layer utilization (Ratio)
system.membus.respLayer37.occupancy        3484594274                       # Layer occupancy (ticks) (Tick)
system.membus.respLayer37.utilization             0.1                       # Layer utilization (Ratio)
system.membus.respLayer6.occupancy             674500                       # Layer occupancy (ticks) (Tick)
system.membus.respLayer6.utilization              0.0                       # Layer utilization (Ratio)
system.membus.respLayer7.occupancy         3485510078                       # Layer occupancy (ticks) (Tick)
system.membus.respLayer7.utilization              0.1                       # Layer utilization (Ratio)
system.membus.snoop_filter.totRequests       11782349                       # Total number of requests made to the snoop filter. (Count)
system.membus.snoop_filter.hitSingleRequests      5894821                       # Number of requests hitting in the snoop filter with a single holder of the requested data. (Count)
system.membus.snoop_filter.hitMultiRequests        10450                       # Number of requests hitting in the snoop filter with multiple (>1) holders of the requested data. (Count)
system.membus.snoop_filter.totSnoops                0                       # Total number of snoops made to the snoop filter. (Count)
system.membus.snoop_filter.hitSingleSnoops            0                       # Number of snoops hitting in the snoop filter with a single holder of the requested data. (Count)
system.membus.snoop_filter.hitMultiSnoops            0                       # Number of snoops hitting in the snoop filter with multiple (>1) holders of the requested data. (Count)
system.voltage_domain.voltage                       1                       # Voltage in Volts (Volt)
system.workload.inst.arm                            0                       # number of arm instructions executed (Count)
system.workload.inst.quiesce                        0                       # number of quiesce instructions executed (Count)

---------- End Simulation Statistics   ----------
