
---------- Begin Simulation Statistics ----------
simSeconds                                   0.061438                       # Number of seconds simulated (Second)
simTicks                                  61438434066                       # Number of ticks simulated (Tick)
finalTick                                 61438434066                       # Number of ticks from beginning of simulation (restored from checkpoints and never reset) (Tick)
simFreq                                  1000000000000                       # The number of ticks per simulated second ((Tick/Second))
hostSeconds                                   1681.60                       # Real time elapsed on the host (Second)
hostTickRate                                 36535600                       # The number of ticks simulated per host second (ticks/s) ((Tick/Second))
hostMemory                                     886928                       # Number of bytes of host memory used (Byte)
simInsts                                    130046058                       # Number of instructions simulated (Count)
simOps                                      234451974                       # Number of ops (including micro ops) simulated (Count)
hostInstRate                                    77334                       # Simulator instruction rate (inst/s) ((Count/Second))
hostOpRate                                     139422                       # Simulator op (including micro ops) rate (op/s) ((Count/Second))
system.clk_domain.clock                          1000                       # Clock period in ticks (Tick)
system.cpu0.numCycles                       184499803                       # Number of cpu cycles simulated (Cycle)
system.cpu0.numWorkItemsStarted                     0                       # Number of work items this cpu started (Count)
system.cpu0.numWorkItemsCompleted                   0                       # Number of work items this cpu completed (Count)
system.cpu0.instsAdded                       56775796                       # Number of instructions added to the IQ (excludes non-spec) (Count)
system.cpu0.nonSpecInstsAdded                    1316                       # Number of non-speculative instructions added to the IQ (Count)
system.cpu0.instsIssued                      56762245                       # Number of instructions issued (Count)
system.cpu0.squashedInstsIssued                  3466                       # Number of squashed instructions issued (Count)
system.cpu0.squashedInstsExamined              564490                       # Number of squashed instructions iterated over during squash; mainly for profiling (Count)
system.cpu0.squashedOperandsExamined           723790                       # Number of squashed operands that are examined and possibly removed from graph (Count)
system.cpu0.squashedNonSpecRemoved                422                       # Number of squashed non-spec instructions that were removed (Count)
system.cpu0.numIssuedDist::samples          184177528                       # Number of insts issued each cycle (Count)
system.cpu0.numIssuedDist::mean              0.308193                       # Number of insts issued each cycle (Count)
system.cpu0.numIssuedDist::stdev             1.129868                       # Number of insts issued each cycle (Count)
system.cpu0.numIssuedDist::underflows               0      0.00%      0.00% # Number of insts issued each cycle (Count)
system.cpu0.numIssuedDist::0                166941649     90.64%     90.64% # Number of insts issued each cycle (Count)
system.cpu0.numIssuedDist::1                  4041175      2.19%     92.84% # Number of insts issued each cycle (Count)
system.cpu0.numIssuedDist::2                  3713541      2.02%     94.85% # Number of insts issued each cycle (Count)
system.cpu0.numIssuedDist::3                  1307297      0.71%     95.56% # Number of insts issued each cycle (Count)
system.cpu0.numIssuedDist::4                  3905957      2.12%     97.68% # Number of insts issued each cycle (Count)
system.cpu0.numIssuedDist::5                  1584104      0.86%     98.54% # Number of insts issued each cycle (Count)
system.cpu0.numIssuedDist::6                  1366416      0.74%     99.28% # Number of insts issued each cycle (Count)
system.cpu0.numIssuedDist::7                   909859      0.49%     99.78% # Number of insts issued each cycle (Count)
system.cpu0.numIssuedDist::8                   407530      0.22%    100.00% # Number of insts issued each cycle (Count)
system.cpu0.numIssuedDist::overflows                0      0.00%    100.00% # Number of insts issued each cycle (Count)
system.cpu0.numIssuedDist::min_value                0                       # Number of insts issued each cycle (Count)
system.cpu0.numIssuedDist::max_value                8                       # Number of insts issued each cycle (Count)
system.cpu0.numIssuedDist::total            184177528                       # Number of insts issued each cycle (Count)
system.cpu0.statFuBusy::No_OpClass                  0      0.00%      0.00% # attempts to use FU when none available (Count)
system.cpu0.statFuBusy::IntAlu                  16476      2.33%      2.33% # attempts to use FU when none available (Count)
system.cpu0.statFuBusy::IntMult                     0      0.00%      2.33% # attempts to use FU when none available (Count)
system.cpu0.statFuBusy::IntDiv                      0      0.00%      2.33% # attempts to use FU when none available (Count)
system.cpu0.statFuBusy::FloatAdd                    0      0.00%      2.33% # attempts to use FU when none available (Count)
system.cpu0.statFuBusy::FloatCmp                    0      0.00%      2.33% # attempts to use FU when none available (Count)
system.cpu0.statFuBusy::FloatCvt                    0      0.00%      2.33% # attempts to use FU when none available (Count)
system.cpu0.statFuBusy::FloatMult                   0      0.00%      2.33% # attempts to use FU when none available (Count)
system.cpu0.statFuBusy::FloatMultAcc                0      0.00%      2.33% # attempts to use FU when none available (Count)
system.cpu0.statFuBusy::FloatDiv                    0      0.00%      2.33% # attempts to use FU when none available (Count)
system.cpu0.statFuBusy::FloatMisc                   0      0.00%      2.33% # attempts to use FU when none available (Count)
system.cpu0.statFuBusy::FloatSqrt                   0      0.00%      2.33% # attempts to use FU when none available (Count)
system.cpu0.statFuBusy::SimdAdd                     2      0.00%      2.33% # attempts to use FU when none available (Count)
system.cpu0.statFuBusy::SimdAddAcc                  0      0.00%      2.33% # attempts to use FU when none available (Count)
system.cpu0.statFuBusy::SimdAlu                   120      0.02%      2.35% # attempts to use FU when none available (Count)
system.cpu0.statFuBusy::SimdCmp                     0      0.00%      2.35% # attempts to use FU when none available (Count)
system.cpu0.statFuBusy::SimdCvt                   148      0.02%      2.37% # attempts to use FU when none available (Count)
system.cpu0.statFuBusy::SimdMisc                   51      0.01%      2.37% # attempts to use FU when none available (Count)
system.cpu0.statFuBusy::SimdMult                    0      0.00%      2.37% # attempts to use FU when none available (Count)
system.cpu0.statFuBusy::SimdMultAcc                 0      0.00%      2.37% # attempts to use FU when none available (Count)
system.cpu0.statFuBusy::SimdShift                  21      0.00%      2.38% # attempts to use FU when none available (Count)
system.cpu0.statFuBusy::SimdShiftAcc                0      0.00%      2.38% # attempts to use FU when none available (Count)
system.cpu0.statFuBusy::SimdDiv                     0      0.00%      2.38% # attempts to use FU when none available (Count)
system.cpu0.statFuBusy::SimdSqrt                    0      0.00%      2.38% # attempts to use FU when none available (Count)
system.cpu0.statFuBusy::SimdFloatAdd           667424     94.35%     96.73% # attempts to use FU when none available (Count)
system.cpu0.statFuBusy::SimdFloatAlu                0      0.00%     96.73% # attempts to use FU when none available (Count)
system.cpu0.statFuBusy::SimdFloatCmp                0      0.00%     96.73% # attempts to use FU when none available (Count)
system.cpu0.statFuBusy::SimdFloatCvt                0      0.00%     96.73% # attempts to use FU when none available (Count)
system.cpu0.statFuBusy::SimdFloatDiv                0      0.00%     96.73% # attempts to use FU when none available (Count)
system.cpu0.statFuBusy::SimdFloatMisc               0      0.00%     96.73% # attempts to use FU when none available (Count)
system.cpu0.statFuBusy::SimdFloatMult               0      0.00%     96.73% # attempts to use FU when none available (Count)
system.cpu0.statFuBusy::SimdFloatMultAcc            0      0.00%     96.73% # attempts to use FU when none available (Count)
system.cpu0.statFuBusy::SimdFloatSqrt               0      0.00%     96.73% # attempts to use FU when none available (Count)
system.cpu0.statFuBusy::SimdReduceAdd               0      0.00%     96.73% # attempts to use FU when none available (Count)
system.cpu0.statFuBusy::SimdReduceAlu               0      0.00%     96.73% # attempts to use FU when none available (Count)
system.cpu0.statFuBusy::SimdReduceCmp               0      0.00%     96.73% # attempts to use FU when none available (Count)
system.cpu0.statFuBusy::SimdFloatReduceAdd            0      0.00%     96.73% # attempts to use FU when none available (Count)
system.cpu0.statFuBusy::SimdFloatReduceCmp            0      0.00%     96.73% # attempts to use FU when none available (Count)
system.cpu0.statFuBusy::SimdAes                     0      0.00%     96.73% # attempts to use FU when none available (Count)
system.cpu0.statFuBusy::SimdAesMix                  0      0.00%     96.73% # attempts to use FU when none available (Count)
system.cpu0.statFuBusy::SimdSha1Hash                0      0.00%     96.73% # attempts to use FU when none available (Count)
system.cpu0.statFuBusy::SimdSha1Hash2               0      0.00%     96.73% # attempts to use FU when none available (Count)
system.cpu0.statFuBusy::SimdSha256Hash              0      0.00%     96.73% # attempts to use FU when none available (Count)
system.cpu0.statFuBusy::SimdSha256Hash2             0      0.00%     96.73% # attempts to use FU when none available (Count)
system.cpu0.statFuBusy::SimdShaSigma2               0      0.00%     96.73% # attempts to use FU when none available (Count)
system.cpu0.statFuBusy::SimdShaSigma3               0      0.00%     96.73% # attempts to use FU when none available (Count)
system.cpu0.statFuBusy::SimdPredAlu                 0      0.00%     96.73% # attempts to use FU when none available (Count)
system.cpu0.statFuBusy::MemRead                  2009      0.28%     97.01% # attempts to use FU when none available (Count)
system.cpu0.statFuBusy::MemWrite                 1175      0.17%     97.18% # attempts to use FU when none available (Count)
system.cpu0.statFuBusy::FloatMemRead             4735      0.67%     97.85% # attempts to use FU when none available (Count)
system.cpu0.statFuBusy::FloatMemWrite           15214      2.15%    100.00% # attempts to use FU when none available (Count)
system.cpu0.statFuBusy::IprAccess                   0      0.00%    100.00% # attempts to use FU when none available (Count)
system.cpu0.statFuBusy::InstPrefetch                0      0.00%    100.00% # attempts to use FU when none available (Count)
system.cpu0.statIssuedInstType_0::No_OpClass        22006      0.04%      0.04% # Number of instructions issued per FU type, per thread (Count)
system.cpu0.statIssuedInstType_0::IntAlu     32418075     57.11%     57.15% # Number of instructions issued per FU type, per thread (Count)
system.cpu0.statIssuedInstType_0::IntMult          270      0.00%     57.15% # Number of instructions issued per FU type, per thread (Count)
system.cpu0.statIssuedInstType_0::IntDiv         2965      0.01%     57.16% # Number of instructions issued per FU type, per thread (Count)
system.cpu0.statIssuedInstType_0::FloatAdd      3879862      6.84%     63.99% # Number of instructions issued per FU type, per thread (Count)
system.cpu0.statIssuedInstType_0::FloatCmp            0      0.00%     63.99% # Number of instructions issued per FU type, per thread (Count)
system.cpu0.statIssuedInstType_0::FloatCvt          488      0.00%     63.99% # Number of instructions issued per FU type, per thread (Count)
system.cpu0.statIssuedInstType_0::FloatMult            0      0.00%     63.99% # Number of instructions issued per FU type, per thread (Count)
system.cpu0.statIssuedInstType_0::FloatMultAcc            0      0.00%     63.99% # Number of instructions issued per FU type, per thread (Count)
system.cpu0.statIssuedInstType_0::FloatDiv            0      0.00%     63.99% # Number of instructions issued per FU type, per thread (Count)
system.cpu0.statIssuedInstType_0::FloatMisc            0      0.00%     63.99% # Number of instructions issued per FU type, per thread (Count)
system.cpu0.statIssuedInstType_0::FloatSqrt            0      0.00%     63.99% # Number of instructions issued per FU type, per thread (Count)
system.cpu0.statIssuedInstType_0::SimdAdd         1601      0.00%     64.00% # Number of instructions issued per FU type, per thread (Count)
system.cpu0.statIssuedInstType_0::SimdAddAcc            0      0.00%     64.00% # Number of instructions issued per FU type, per thread (Count)
system.cpu0.statIssuedInstType_0::SimdAlu        23658      0.04%     64.04% # Number of instructions issued per FU type, per thread (Count)
system.cpu0.statIssuedInstType_0::SimdCmp           70      0.00%     64.04% # Number of instructions issued per FU type, per thread (Count)
system.cpu0.statIssuedInstType_0::SimdCvt         4624      0.01%     64.05% # Number of instructions issued per FU type, per thread (Count)
system.cpu0.statIssuedInstType_0::SimdMisc         3799      0.01%     64.05% # Number of instructions issued per FU type, per thread (Count)
system.cpu0.statIssuedInstType_0::SimdMult            0      0.00%     64.05% # Number of instructions issued per FU type, per thread (Count)
system.cpu0.statIssuedInstType_0::SimdMultAcc            0      0.00%     64.05% # Number of instructions issued per FU type, per thread (Count)
system.cpu0.statIssuedInstType_0::SimdShift         1289      0.00%     64.05% # Number of instructions issued per FU type, per thread (Count)
system.cpu0.statIssuedInstType_0::SimdShiftAcc            0      0.00%     64.05% # Number of instructions issued per FU type, per thread (Count)
system.cpu0.statIssuedInstType_0::SimdDiv            0      0.00%     64.05% # Number of instructions issued per FU type, per thread (Count)
system.cpu0.statIssuedInstType_0::SimdSqrt            0      0.00%     64.05% # Number of instructions issued per FU type, per thread (Count)
system.cpu0.statIssuedInstType_0::SimdFloatAdd      6881480     12.12%     76.18% # Number of instructions issued per FU type, per thread (Count)
system.cpu0.statIssuedInstType_0::SimdFloatAlu            0      0.00%     76.18% # Number of instructions issued per FU type, per thread (Count)
system.cpu0.statIssuedInstType_0::SimdFloatCmp           16      0.00%     76.18% # Number of instructions issued per FU type, per thread (Count)
system.cpu0.statIssuedInstType_0::SimdFloatCvt      3009763      5.30%     81.48% # Number of instructions issued per FU type, per thread (Count)
system.cpu0.statIssuedInstType_0::SimdFloatDiv           11      0.00%     81.48% # Number of instructions issued per FU type, per thread (Count)
system.cpu0.statIssuedInstType_0::SimdFloatMisc            0      0.00%     81.48% # Number of instructions issued per FU type, per thread (Count)
system.cpu0.statIssuedInstType_0::SimdFloatMult       753279      1.33%     82.81% # Number of instructions issued per FU type, per thread (Count)
system.cpu0.statIssuedInstType_0::SimdFloatMultAcc            0      0.00%     82.81% # Number of instructions issued per FU type, per thread (Count)
system.cpu0.statIssuedInstType_0::SimdFloatSqrt            0      0.00%     82.81% # Number of instructions issued per FU type, per thread (Count)
system.cpu0.statIssuedInstType_0::SimdReduceAdd            0      0.00%     82.81% # Number of instructions issued per FU type, per thread (Count)
system.cpu0.statIssuedInstType_0::SimdReduceAlu            0      0.00%     82.81% # Number of instructions issued per FU type, per thread (Count)
system.cpu0.statIssuedInstType_0::SimdReduceCmp            0      0.00%     82.81% # Number of instructions issued per FU type, per thread (Count)
system.cpu0.statIssuedInstType_0::SimdFloatReduceAdd            0      0.00%     82.81% # Number of instructions issued per FU type, per thread (Count)
system.cpu0.statIssuedInstType_0::SimdFloatReduceCmp            0      0.00%     82.81% # Number of instructions issued per FU type, per thread (Count)
system.cpu0.statIssuedInstType_0::SimdAes            0      0.00%     82.81% # Number of instructions issued per FU type, per thread (Count)
system.cpu0.statIssuedInstType_0::SimdAesMix            0      0.00%     82.81% # Number of instructions issued per FU type, per thread (Count)
system.cpu0.statIssuedInstType_0::SimdSha1Hash            0      0.00%     82.81% # Number of instructions issued per FU type, per thread (Count)
system.cpu0.statIssuedInstType_0::SimdSha1Hash2            0      0.00%     82.81% # Number of instructions issued per FU type, per thread (Count)
system.cpu0.statIssuedInstType_0::SimdSha256Hash            0      0.00%     82.81% # Number of instructions issued per FU type, per thread (Count)
system.cpu0.statIssuedInstType_0::SimdSha256Hash2            0      0.00%     82.81% # Number of instructions issued per FU type, per thread (Count)
system.cpu0.statIssuedInstType_0::SimdShaSigma2            0      0.00%     82.81% # Number of instructions issued per FU type, per thread (Count)
system.cpu0.statIssuedInstType_0::SimdShaSigma3            0      0.00%     82.81% # Number of instructions issued per FU type, per thread (Count)
system.cpu0.statIssuedInstType_0::SimdPredAlu            0      0.00%     82.81% # Number of instructions issued per FU type, per thread (Count)
system.cpu0.statIssuedInstType_0::MemRead       180559      0.32%     83.13% # Number of instructions issued per FU type, per thread (Count)
system.cpu0.statIssuedInstType_0::MemWrite       185266      0.33%     83.45% # Number of instructions issued per FU type, per thread (Count)
system.cpu0.statIssuedInstType_0::FloatMemRead      7512599     13.24%     96.69% # Number of instructions issued per FU type, per thread (Count)
system.cpu0.statIssuedInstType_0::FloatMemWrite      1880565      3.31%    100.00% # Number of instructions issued per FU type, per thread (Count)
system.cpu0.statIssuedInstType_0::IprAccess            0      0.00%    100.00% # Number of instructions issued per FU type, per thread (Count)
system.cpu0.statIssuedInstType_0::InstPrefetch            0      0.00%    100.00% # Number of instructions issued per FU type, per thread (Count)
system.cpu0.statIssuedInstType_0::total      56762245                       # Number of instructions issued per FU type, per thread (Count)
system.cpu0.issueRate                        0.307655                       # Inst issue rate ((Count/Cycle))
system.cpu0.fuBusy                             707375                       # FU busy when requested (Count)
system.cpu0.fuBusyRate                       0.012462                       # FU busy rate (busy events/executed inst) ((Count/Count))
system.cpu0.intInstQueueReads               246803888                       # Number of integer instruction queue reads (Count)
system.cpu0.intInstQueueWrites               31911187                       # Number of integer instruction queue writes (Count)
system.cpu0.intInstQueueWakeupAccesses       31265463                       # Number of integer instruction queue wakeup accesses (Count)
system.cpu0.fpInstQueueReads                 51608971                       # Number of floating instruction queue reads (Count)
system.cpu0.fpInstQueueWrites                25430663                       # Number of floating instruction queue writes (Count)
system.cpu0.fpInstQueueWakeupAccesses        25344382                       # Number of floating instruction queue wakeup accesses (Count)
system.cpu0.vecInstQueueReads                       0                       # Number of vector instruction queue reads (Count)
system.cpu0.vecInstQueueWrites                      0                       # Number of vector instruction queue writes (Count)
system.cpu0.vecInstQueueWakeupAccesses              0                       # Number of vector instruction queue wakeup accesses (Count)
system.cpu0.intAluAccesses                   31299409                       # Number of integer alu accesses (Count)
system.cpu0.fpAluAccesses                    26148205                       # Number of floating point alu accesses (Count)
system.cpu0.vecAluAccesses                          0                       # Number of vector alu accesses (Count)
system.cpu0.numInsts                         56735264                       # Number of executed instructions (Count)
system.cpu0.numLoadInsts                      7682303                       # Number of load instructions executed (Count)
system.cpu0.numSquashedInsts                    26981                       # Number of squashed instructions skipped in execute (Count)
system.cpu0.numSwp                                  0                       # Number of swp insts executed (Count)
system.cpu0.numNop                                  0                       # Number of nop insts executed (Count)
system.cpu0.numRefs                           9747155                       # Number of memory reference insts executed (Count)
system.cpu0.numBranches                       5949664                       # Number of branches executed (Count)
system.cpu0.numStoreInsts                     2064852                       # Number of stores executed (Count)
system.cpu0.numRate                          0.307509                       # Inst execution rate ((Count/Cycle))
system.cpu0.timesIdled                           1760                       # Number of times that the entire CPU went into an idle state and unscheduled itself (Count)
system.cpu0.idleCycles                         322275                       # Total number of cycles that the CPU has spent unscheduled due to idling (Cycle)
system.cpu0.committedInsts                   30160842                       # Number of Instructions Simulated (Count)
system.cpu0.committedOps                     56212616                       # Number of Ops (including micro ops) Simulated (Count)
system.cpu0.cpi                              6.117197                       # CPI: Cycles Per Instruction ((Cycle/Count))
system.cpu0.totalCpi                         6.117197                       # CPI: Total CPI of All Threads ((Cycle/Count))
system.cpu0.ipc                              0.163474                       # IPC: Instructions Per Cycle ((Count/Cycle))
system.cpu0.totalIpc                         0.163474                       # IPC: Total IPC of All Threads ((Count/Cycle))
system.cpu0.intRegfileReads                  44078802                       # Number of integer regfile reads (Count)
system.cpu0.intRegfileWrites                 22189901                       # Number of integer regfile writes (Count)
system.cpu0.fpRegfileReads                   33889384                       # Number of floating regfile reads (Count)
system.cpu0.fpRegfileWrites                  20458314                       # Number of floating regfile writes (Count)
system.cpu0.ccRegfileReads                   35669536                       # number of cc regfile reads (Count)
system.cpu0.ccRegfileWrites                  17565908                       # number of cc regfile writes (Count)
system.cpu0.miscRegfileReads                 23665057                       # number of misc regfile reads (Count)
system.cpu0.miscRegfileWrites                     234                       # number of misc regfile writes (Count)
system.cpu0.MemDepUnit__0.insertedLoads       7594424                       # Number of loads inserted to the mem dependence unit. (Count)
system.cpu0.MemDepUnit__0.insertedStores      2070767                       # Number of stores inserted to the mem dependence unit. (Count)
system.cpu0.MemDepUnit__0.conflictingLoads       129755                       # Number of conflicting loads. (Count)
system.cpu0.MemDepUnit__0.conflictingStores       128199                       # Number of conflicting stores. (Count)
system.cpu0.MemDepUnit__1.insertedLoads             0                       # Number of loads inserted to the mem dependence unit. (Count)
system.cpu0.MemDepUnit__1.insertedStores            0                       # Number of stores inserted to the mem dependence unit. (Count)
system.cpu0.MemDepUnit__1.conflictingLoads            0                       # Number of conflicting loads. (Count)
system.cpu0.MemDepUnit__1.conflictingStores            0                       # Number of conflicting stores. (Count)
system.cpu0.MemDepUnit__2.insertedLoads             0                       # Number of loads inserted to the mem dependence unit. (Count)
system.cpu0.MemDepUnit__2.insertedStores            0                       # Number of stores inserted to the mem dependence unit. (Count)
system.cpu0.MemDepUnit__2.conflictingLoads            0                       # Number of conflicting loads. (Count)
system.cpu0.MemDepUnit__2.conflictingStores            0                       # Number of conflicting stores. (Count)
system.cpu0.MemDepUnit__3.insertedLoads             0                       # Number of loads inserted to the mem dependence unit. (Count)
system.cpu0.MemDepUnit__3.insertedStores            0                       # Number of stores inserted to the mem dependence unit. (Count)
system.cpu0.MemDepUnit__3.conflictingLoads            0                       # Number of conflicting loads. (Count)
system.cpu0.MemDepUnit__3.conflictingStores            0                       # Number of conflicting stores. (Count)
system.cpu0.branchPred.lookups                6001459                       # Number of BP lookups (Count)
system.cpu0.branchPred.condPredicted          5948498                       # Number of conditional branches predicted (Count)
system.cpu0.branchPred.condIncorrect             8993                       # Number of conditional branches incorrect (Count)
system.cpu0.branchPred.BTBLookups             2854501                       # Number of BTB lookups (Count)
system.cpu0.branchPred.BTBHits                2850814                       # Number of BTB hits (Count)
system.cpu0.branchPred.BTBHitRatio           0.998708                       # BTB Hit Ratio (Ratio)
system.cpu0.branchPred.RASUsed                  15135                       # Number of times the RAS was used to get a target. (Count)
system.cpu0.branchPred.RASIncorrect                19                       # Number of incorrect RAS predictions. (Count)
system.cpu0.branchPred.indirectLookups           8814                       # Number of indirect predictor lookups. (Count)
system.cpu0.branchPred.indirectHits              4379                       # Number of indirect target hits. (Count)
system.cpu0.branchPred.indirectMisses            4435                       # Number of indirect misses. (Count)
system.cpu0.branchPred.indirectMispredicted          859                       # Number of mispredicted indirect branches. (Count)
system.cpu0.commit.commitSquashedInsts         483636                       # The number of squashed insts skipped by commit (Count)
system.cpu0.commit.commitNonSpecStalls            894                       # The number of times commit has been forced to stall to communicate backwards (Count)
system.cpu0.commit.branchMispredicts             8450                       # The number of times a branch was mispredicted (Count)
system.cpu0.commit.numCommittedDist::samples    184107505                       # Number of insts commited each cycle (Count)
system.cpu0.commit.numCommittedDist::mean     0.305325                       # Number of insts commited each cycle (Count)
system.cpu0.commit.numCommittedDist::stdev     1.437391                       # Number of insts commited each cycle (Count)
system.cpu0.commit.numCommittedDist::underflows            0      0.00%      0.00% # Number of insts commited each cycle (Count)
system.cpu0.commit.numCommittedDist::0      173619478     94.30%     94.30% # Number of insts commited each cycle (Count)
system.cpu0.commit.numCommittedDist::1        2159183      1.17%     95.48% # Number of insts commited each cycle (Count)
system.cpu0.commit.numCommittedDist::2         580272      0.32%     95.79% # Number of insts commited each cycle (Count)
system.cpu0.commit.numCommittedDist::3        1438572      0.78%     96.57% # Number of insts commited each cycle (Count)
system.cpu0.commit.numCommittedDist::4         371488      0.20%     96.77% # Number of insts commited each cycle (Count)
system.cpu0.commit.numCommittedDist::5          40412      0.02%     96.80% # Number of insts commited each cycle (Count)
system.cpu0.commit.numCommittedDist::6          60359      0.03%     96.83% # Number of insts commited each cycle (Count)
system.cpu0.commit.numCommittedDist::7         174921      0.10%     96.92% # Number of insts commited each cycle (Count)
system.cpu0.commit.numCommittedDist::8        5662820      3.08%    100.00% # Number of insts commited each cycle (Count)
system.cpu0.commit.numCommittedDist::overflows            0      0.00%    100.00% # Number of insts commited each cycle (Count)
system.cpu0.commit.numCommittedDist::min_value            0                       # Number of insts commited each cycle (Count)
system.cpu0.commit.numCommittedDist::max_value            8                       # Number of insts commited each cycle (Count)
system.cpu0.commit.numCommittedDist::total    184107505                       # Number of insts commited each cycle (Count)
system.cpu0.commit.instsCommitted            30160842                       # Number of instructions committed (Count)
system.cpu0.commit.opsCommitted              56212616                       # Number of ops (including micro ops) committed (Count)
system.cpu0.commit.memRefs                    9564203                       # Number of memory references committed (Count)
system.cpu0.commit.loads                      7515559                       # Number of loads committed (Count)
system.cpu0.commit.amos                             0                       # Number of atomic instructions committed (Count)
system.cpu0.commit.membars                        440                       # Number of memory barriers committed (Count)
system.cpu0.commit.branches                   5909827                       # Number of branches committed (Count)
system.cpu0.commit.vectorInstructions               0                       # Number of committed Vector instructions. (Count)
system.cpu0.commit.floating                  25302617                       # Number of committed floating point instructions. (Count)
system.cpu0.commit.integer                   40136437                       # Number of committed integer instructions. (Count)
system.cpu0.commit.functionCalls                 6561                       # Number of function calls committed. (Count)
system.cpu0.commit.committedInstType_0::No_OpClass         9992      0.02%      0.02% # Class of committed instruction (Count)
system.cpu0.commit.committedInstType_0::IntAlu     32105403     57.11%     57.13% # Class of committed instruction (Count)
system.cpu0.commit.committedInstType_0::IntMult          250      0.00%     57.13% # Class of committed instruction (Count)
system.cpu0.commit.committedInstType_0::IntDiv         2691      0.00%     57.14% # Class of committed instruction (Count)
system.cpu0.commit.committedInstType_0::FloatAdd      3877599      6.90%     64.04% # Class of committed instruction (Count)
system.cpu0.commit.committedInstType_0::FloatCmp            0      0.00%     64.04% # Class of committed instruction (Count)
system.cpu0.commit.committedInstType_0::FloatCvt          416      0.00%     64.04% # Class of committed instruction (Count)
system.cpu0.commit.committedInstType_0::FloatMult            0      0.00%     64.04% # Class of committed instruction (Count)
system.cpu0.commit.committedInstType_0::FloatMultAcc            0      0.00%     64.04% # Class of committed instruction (Count)
system.cpu0.commit.committedInstType_0::FloatDiv            0      0.00%     64.04% # Class of committed instruction (Count)
system.cpu0.commit.committedInstType_0::FloatMisc            0      0.00%     64.04% # Class of committed instruction (Count)
system.cpu0.commit.committedInstType_0::FloatSqrt            0      0.00%     64.04% # Class of committed instruction (Count)
system.cpu0.commit.committedInstType_0::SimdAdd         1098      0.00%     64.04% # Class of committed instruction (Count)
system.cpu0.commit.committedInstType_0::SimdAddAcc            0      0.00%     64.04% # Class of committed instruction (Count)
system.cpu0.commit.committedInstType_0::SimdAlu         9306      0.02%     64.05% # Class of committed instruction (Count)
system.cpu0.commit.committedInstType_0::SimdCmp           66      0.00%     64.05% # Class of committed instruction (Count)
system.cpu0.commit.committedInstType_0::SimdCvt         3104      0.01%     64.06% # Class of committed instruction (Count)
system.cpu0.commit.committedInstType_0::SimdMisc         3140      0.01%     64.07% # Class of committed instruction (Count)
system.cpu0.commit.committedInstType_0::SimdMult            0      0.00%     64.07% # Class of committed instruction (Count)
system.cpu0.commit.committedInstType_0::SimdMultAcc            0      0.00%     64.07% # Class of committed instruction (Count)
system.cpu0.commit.committedInstType_0::SimdShift          507      0.00%     64.07% # Class of committed instruction (Count)
system.cpu0.commit.committedInstType_0::SimdShiftAcc            0      0.00%     64.07% # Class of committed instruction (Count)
system.cpu0.commit.committedInstType_0::SimdDiv            0      0.00%     64.07% # Class of committed instruction (Count)
system.cpu0.commit.committedInstType_0::SimdSqrt            0      0.00%     64.07% # Class of committed instruction (Count)
system.cpu0.commit.committedInstType_0::SimdFloatAdd      6878250     12.24%     76.30% # Class of committed instruction (Count)
system.cpu0.commit.committedInstType_0::SimdFloatAlu            0      0.00%     76.30% # Class of committed instruction (Count)
system.cpu0.commit.committedInstType_0::SimdFloatCmp           16      0.00%     76.30% # Class of committed instruction (Count)
system.cpu0.commit.committedInstType_0::SimdFloatCvt      3004908      5.35%     81.65% # Class of committed instruction (Count)
system.cpu0.commit.committedInstType_0::SimdFloatDiv           11      0.00%     81.65% # Class of committed instruction (Count)
system.cpu0.commit.committedInstType_0::SimdFloatMisc            0      0.00%     81.65% # Class of committed instruction (Count)
system.cpu0.commit.committedInstType_0::SimdFloatMult       751656      1.34%     82.99% # Class of committed instruction (Count)
system.cpu0.commit.committedInstType_0::SimdFloatMultAcc            0      0.00%     82.99% # Class of committed instruction (Count)
system.cpu0.commit.committedInstType_0::SimdFloatSqrt            0      0.00%     82.99% # Class of committed instruction (Count)
system.cpu0.commit.committedInstType_0::SimdReduceAdd            0      0.00%     82.99% # Class of committed instruction (Count)
system.cpu0.commit.committedInstType_0::SimdReduceAlu            0      0.00%     82.99% # Class of committed instruction (Count)
system.cpu0.commit.committedInstType_0::SimdReduceCmp            0      0.00%     82.99% # Class of committed instruction (Count)
system.cpu0.commit.committedInstType_0::SimdFloatReduceAdd            0      0.00%     82.99% # Class of committed instruction (Count)
system.cpu0.commit.committedInstType_0::SimdFloatReduceCmp            0      0.00%     82.99% # Class of committed instruction (Count)
system.cpu0.commit.committedInstType_0::SimdAes            0      0.00%     82.99% # Class of committed instruction (Count)
system.cpu0.commit.committedInstType_0::SimdAesMix            0      0.00%     82.99% # Class of committed instruction (Count)
system.cpu0.commit.committedInstType_0::SimdSha1Hash            0      0.00%     82.99% # Class of committed instruction (Count)
system.cpu0.commit.committedInstType_0::SimdSha1Hash2            0      0.00%     82.99% # Class of committed instruction (Count)
system.cpu0.commit.committedInstType_0::SimdSha256Hash            0      0.00%     82.99% # Class of committed instruction (Count)
system.cpu0.commit.committedInstType_0::SimdSha256Hash2            0      0.00%     82.99% # Class of committed instruction (Count)
system.cpu0.commit.committedInstType_0::SimdShaSigma2            0      0.00%     82.99% # Class of committed instruction (Count)
system.cpu0.commit.committedInstType_0::SimdShaSigma3            0      0.00%     82.99% # Class of committed instruction (Count)
system.cpu0.commit.committedInstType_0::SimdPredAlu            0      0.00%     82.99% # Class of committed instruction (Count)
system.cpu0.commit.committedInstType_0::MemRead       126988      0.23%     83.21% # Class of committed instruction (Count)
system.cpu0.commit.committedInstType_0::MemWrite       168651      0.30%     83.51% # Class of committed instruction (Count)
system.cpu0.commit.committedInstType_0::FloatMemRead      7388571     13.14%     96.66% # Class of committed instruction (Count)
system.cpu0.commit.committedInstType_0::FloatMemWrite      1879993      3.34%    100.00% # Class of committed instruction (Count)
system.cpu0.commit.committedInstType_0::IprAccess            0      0.00%    100.00% # Class of committed instruction (Count)
system.cpu0.commit.committedInstType_0::InstPrefetch            0      0.00%    100.00% # Class of committed instruction (Count)
system.cpu0.commit.committedInstType_0::total     56212616                       # Class of committed instruction (Count)
system.cpu0.commit.commitEligibleSamples      5662820                       # number cycles where commit BW limit reached (Cycle)
system.cpu0.dcache.demandHits::cpu0.data      5527118                       # number of demand (read+write) hits (Count)
system.cpu0.dcache.demandHits::total          5527118                       # number of demand (read+write) hits (Count)
system.cpu0.dcache.overallHits::cpu0.data      5527118                       # number of overall hits (Count)
system.cpu0.dcache.overallHits::total         5527118                       # number of overall hits (Count)
system.cpu0.dcache.demandMisses::cpu0.data      4081275                       # number of demand (read+write) misses (Count)
system.cpu0.dcache.demandMisses::total        4081275                       # number of demand (read+write) misses (Count)
system.cpu0.dcache.overallMisses::cpu0.data      4081275                       # number of overall misses (Count)
system.cpu0.dcache.overallMisses::total       4081275                       # number of overall misses (Count)
system.cpu0.dcache.demandMissLatency::cpu0.data 355989324976                       # number of demand (read+write) miss ticks (Tick)
system.cpu0.dcache.demandMissLatency::total 355989324976                       # number of demand (read+write) miss ticks (Tick)
system.cpu0.dcache.overallMissLatency::cpu0.data 355989324976                       # number of overall miss ticks (Tick)
system.cpu0.dcache.overallMissLatency::total 355989324976                       # number of overall miss ticks (Tick)
system.cpu0.dcache.demandAccesses::cpu0.data      9608393                       # number of demand (read+write) accesses (Count)
system.cpu0.dcache.demandAccesses::total      9608393                       # number of demand (read+write) accesses (Count)
system.cpu0.dcache.overallAccesses::cpu0.data      9608393                       # number of overall (read+write) accesses (Count)
system.cpu0.dcache.overallAccesses::total      9608393                       # number of overall (read+write) accesses (Count)
system.cpu0.dcache.demandMissRate::cpu0.data     0.424761                       # miss rate for demand accesses (Ratio)
system.cpu0.dcache.demandMissRate::total     0.424761                       # miss rate for demand accesses (Ratio)
system.cpu0.dcache.overallMissRate::cpu0.data     0.424761                       # miss rate for overall accesses (Ratio)
system.cpu0.dcache.overallMissRate::total     0.424761                       # miss rate for overall accesses (Ratio)
system.cpu0.dcache.demandAvgMissLatency::cpu0.data 87225.027712                       # average overall miss latency in ticks ((Tick/Count))
system.cpu0.dcache.demandAvgMissLatency::total 87225.027712                       # average overall miss latency in ticks ((Tick/Count))
system.cpu0.dcache.overallAvgMissLatency::cpu0.data 87225.027712                       # average overall miss latency ((Tick/Count))
system.cpu0.dcache.overallAvgMissLatency::total 87225.027712                       # average overall miss latency ((Tick/Count))
system.cpu0.dcache.blockedCycles::no_mshrs     23528681                       # number of cycles access was blocked (Cycle)
system.cpu0.dcache.blockedCycles::no_targets          349                       # number of cycles access was blocked (Cycle)
system.cpu0.dcache.blockedCauses::no_mshrs       160807                       # number of times access was blocked (Count)
system.cpu0.dcache.blockedCauses::no_targets            5                       # number of times access was blocked (Count)
system.cpu0.dcache.avgBlocked::no_mshrs    146.316274                       # average number of cycles each access was blocked ((Cycle/Count))
system.cpu0.dcache.avgBlocked::no_targets    69.800000                       # average number of cycles each access was blocked ((Cycle/Count))
system.cpu0.dcache.writebacks::writebacks       252309                       # number of writebacks (Count)
system.cpu0.dcache.writebacks::total           252309                       # number of writebacks (Count)
system.cpu0.dcache.demandMshrHits::cpu0.data      3169045                       # number of demand (read+write) MSHR hits (Count)
system.cpu0.dcache.demandMshrHits::total      3169045                       # number of demand (read+write) MSHR hits (Count)
system.cpu0.dcache.overallMshrHits::cpu0.data      3169045                       # number of overall MSHR hits (Count)
system.cpu0.dcache.overallMshrHits::total      3169045                       # number of overall MSHR hits (Count)
system.cpu0.dcache.demandMshrMisses::cpu0.data       912230                       # number of demand (read+write) MSHR misses (Count)
system.cpu0.dcache.demandMshrMisses::total       912230                       # number of demand (read+write) MSHR misses (Count)
system.cpu0.dcache.overallMshrMisses::cpu0.data       912230                       # number of overall MSHR misses (Count)
system.cpu0.dcache.overallMshrMisses::total       912230                       # number of overall MSHR misses (Count)
system.cpu0.dcache.demandMshrMissLatency::cpu0.data 145240942651                       # number of demand (read+write) MSHR miss ticks (Tick)
system.cpu0.dcache.demandMshrMissLatency::total 145240942651                       # number of demand (read+write) MSHR miss ticks (Tick)
system.cpu0.dcache.overallMshrMissLatency::cpu0.data 145240942651                       # number of overall MSHR miss ticks (Tick)
system.cpu0.dcache.overallMshrMissLatency::total 145240942651                       # number of overall MSHR miss ticks (Tick)
system.cpu0.dcache.demandMshrMissRate::cpu0.data     0.094941                       # mshr miss ratio for demand accesses (Ratio)
system.cpu0.dcache.demandMshrMissRate::total     0.094941                       # mshr miss ratio for demand accesses (Ratio)
system.cpu0.dcache.overallMshrMissRate::cpu0.data     0.094941                       # mshr miss ratio for overall accesses (Ratio)
system.cpu0.dcache.overallMshrMissRate::total     0.094941                       # mshr miss ratio for overall accesses (Ratio)
system.cpu0.dcache.demandAvgMshrMissLatency::cpu0.data 159215.266601                       # average overall mshr miss latency ((Tick/Count))
system.cpu0.dcache.demandAvgMshrMissLatency::total 159215.266601                       # average overall mshr miss latency ((Tick/Count))
system.cpu0.dcache.overallAvgMshrMissLatency::cpu0.data 159215.266601                       # average overall mshr miss latency ((Tick/Count))
system.cpu0.dcache.overallAvgMshrMissLatency::total 159215.266601                       # average overall mshr miss latency ((Tick/Count))
system.cpu0.dcache.replacements                910965                       # number of replacements (Count)
system.cpu0.dcache.LockedRMWReadReq.hits::cpu0.data          186                       # number of LockedRMWReadReq hits (Count)
system.cpu0.dcache.LockedRMWReadReq.hits::total          186                       # number of LockedRMWReadReq hits (Count)
system.cpu0.dcache.LockedRMWReadReq.misses::cpu0.data           34                       # number of LockedRMWReadReq misses (Count)
system.cpu0.dcache.LockedRMWReadReq.misses::total           34                       # number of LockedRMWReadReq misses (Count)
system.cpu0.dcache.LockedRMWReadReq.missLatency::cpu0.data       302031                       # number of LockedRMWReadReq miss ticks (Tick)
system.cpu0.dcache.LockedRMWReadReq.missLatency::total       302031                       # number of LockedRMWReadReq miss ticks (Tick)
system.cpu0.dcache.LockedRMWReadReq.accesses::cpu0.data          220                       # number of LockedRMWReadReq accesses(hits+misses) (Count)
system.cpu0.dcache.LockedRMWReadReq.accesses::total          220                       # number of LockedRMWReadReq accesses(hits+misses) (Count)
system.cpu0.dcache.LockedRMWReadReq.missRate::cpu0.data     0.154545                       # miss rate for LockedRMWReadReq accesses (Ratio)
system.cpu0.dcache.LockedRMWReadReq.missRate::total     0.154545                       # miss rate for LockedRMWReadReq accesses (Ratio)
system.cpu0.dcache.LockedRMWReadReq.avgMissLatency::cpu0.data  8883.264706                       # average LockedRMWReadReq miss latency ((Tick/Count))
system.cpu0.dcache.LockedRMWReadReq.avgMissLatency::total  8883.264706                       # average LockedRMWReadReq miss latency ((Tick/Count))
system.cpu0.dcache.LockedRMWReadReq.mshrMisses::cpu0.data           34                       # number of LockedRMWReadReq MSHR misses (Count)
system.cpu0.dcache.LockedRMWReadReq.mshrMisses::total           34                       # number of LockedRMWReadReq MSHR misses (Count)
system.cpu0.dcache.LockedRMWReadReq.mshrMissLatency::cpu0.data      1183482                       # number of LockedRMWReadReq MSHR miss ticks (Tick)
system.cpu0.dcache.LockedRMWReadReq.mshrMissLatency::total      1183482                       # number of LockedRMWReadReq MSHR miss ticks (Tick)
system.cpu0.dcache.LockedRMWReadReq.mshrMissRate::cpu0.data     0.154545                       # mshr miss rate for LockedRMWReadReq accesses (Ratio)
system.cpu0.dcache.LockedRMWReadReq.mshrMissRate::total     0.154545                       # mshr miss rate for LockedRMWReadReq accesses (Ratio)
system.cpu0.dcache.LockedRMWReadReq.avgMshrMissLatency::cpu0.data 34808.294118                       # average LockedRMWReadReq mshr miss latency ((Tick/Count))
system.cpu0.dcache.LockedRMWReadReq.avgMshrMissLatency::total 34808.294118                       # average LockedRMWReadReq mshr miss latency ((Tick/Count))
system.cpu0.dcache.LockedRMWWriteReq.hits::cpu0.data          220                       # number of LockedRMWWriteReq hits (Count)
system.cpu0.dcache.LockedRMWWriteReq.hits::total          220                       # number of LockedRMWWriteReq hits (Count)
system.cpu0.dcache.LockedRMWWriteReq.accesses::cpu0.data          220                       # number of LockedRMWWriteReq accesses(hits+misses) (Count)
system.cpu0.dcache.LockedRMWWriteReq.accesses::total          220                       # number of LockedRMWWriteReq accesses(hits+misses) (Count)
system.cpu0.dcache.ReadReq.hits::cpu0.data      3714886                       # number of ReadReq hits (Count)
system.cpu0.dcache.ReadReq.hits::total        3714886                       # number of ReadReq hits (Count)
system.cpu0.dcache.ReadReq.misses::cpu0.data      3845062                       # number of ReadReq misses (Count)
system.cpu0.dcache.ReadReq.misses::total      3845062                       # number of ReadReq misses (Count)
system.cpu0.dcache.ReadReq.missLatency::cpu0.data 311647884489                       # number of ReadReq miss ticks (Tick)
system.cpu0.dcache.ReadReq.missLatency::total 311647884489                       # number of ReadReq miss ticks (Tick)
system.cpu0.dcache.ReadReq.accesses::cpu0.data      7559948                       # number of ReadReq accesses(hits+misses) (Count)
system.cpu0.dcache.ReadReq.accesses::total      7559948                       # number of ReadReq accesses(hits+misses) (Count)
system.cpu0.dcache.ReadReq.missRate::cpu0.data     0.508610                       # miss rate for ReadReq accesses (Ratio)
system.cpu0.dcache.ReadReq.missRate::total     0.508610                       # miss rate for ReadReq accesses (Ratio)
system.cpu0.dcache.ReadReq.avgMissLatency::cpu0.data 81051.458855                       # average ReadReq miss latency ((Tick/Count))
system.cpu0.dcache.ReadReq.avgMissLatency::total 81051.458855                       # average ReadReq miss latency ((Tick/Count))
system.cpu0.dcache.ReadReq.mshrHits::cpu0.data      3169030                       # number of ReadReq MSHR hits (Count)
system.cpu0.dcache.ReadReq.mshrHits::total      3169030                       # number of ReadReq MSHR hits (Count)
system.cpu0.dcache.ReadReq.mshrMisses::cpu0.data       676032                       # number of ReadReq MSHR misses (Count)
system.cpu0.dcache.ReadReq.mshrMisses::total       676032                       # number of ReadReq MSHR misses (Count)
system.cpu0.dcache.ReadReq.mshrMissLatency::cpu0.data 101057806701                       # number of ReadReq MSHR miss ticks (Tick)
system.cpu0.dcache.ReadReq.mshrMissLatency::total 101057806701                       # number of ReadReq MSHR miss ticks (Tick)
system.cpu0.dcache.ReadReq.mshrMissRate::cpu0.data     0.089423                       # mshr miss rate for ReadReq accesses (Ratio)
system.cpu0.dcache.ReadReq.mshrMissRate::total     0.089423                       # mshr miss rate for ReadReq accesses (Ratio)
system.cpu0.dcache.ReadReq.avgMshrMissLatency::cpu0.data 149486.720601                       # average ReadReq mshr miss latency ((Tick/Count))
system.cpu0.dcache.ReadReq.avgMshrMissLatency::total 149486.720601                       # average ReadReq mshr miss latency ((Tick/Count))
system.cpu0.dcache.WriteReq.hits::cpu0.data      1812232                       # number of WriteReq hits (Count)
system.cpu0.dcache.WriteReq.hits::total       1812232                       # number of WriteReq hits (Count)
system.cpu0.dcache.WriteReq.misses::cpu0.data       236213                       # number of WriteReq misses (Count)
system.cpu0.dcache.WriteReq.misses::total       236213                       # number of WriteReq misses (Count)
system.cpu0.dcache.WriteReq.missLatency::cpu0.data  44341440487                       # number of WriteReq miss ticks (Tick)
system.cpu0.dcache.WriteReq.missLatency::total  44341440487                       # number of WriteReq miss ticks (Tick)
system.cpu0.dcache.WriteReq.accesses::cpu0.data      2048445                       # number of WriteReq accesses(hits+misses) (Count)
system.cpu0.dcache.WriteReq.accesses::total      2048445                       # number of WriteReq accesses(hits+misses) (Count)
system.cpu0.dcache.WriteReq.missRate::cpu0.data     0.115313                       # miss rate for WriteReq accesses (Ratio)
system.cpu0.dcache.WriteReq.missRate::total     0.115313                       # miss rate for WriteReq accesses (Ratio)
system.cpu0.dcache.WriteReq.avgMissLatency::cpu0.data 187718.036209                       # average WriteReq miss latency ((Tick/Count))
system.cpu0.dcache.WriteReq.avgMissLatency::total 187718.036209                       # average WriteReq miss latency ((Tick/Count))
system.cpu0.dcache.WriteReq.mshrHits::cpu0.data           15                       # number of WriteReq MSHR hits (Count)
system.cpu0.dcache.WriteReq.mshrHits::total           15                       # number of WriteReq MSHR hits (Count)
system.cpu0.dcache.WriteReq.mshrMisses::cpu0.data       236198                       # number of WriteReq MSHR misses (Count)
system.cpu0.dcache.WriteReq.mshrMisses::total       236198                       # number of WriteReq MSHR misses (Count)
system.cpu0.dcache.WriteReq.mshrMissLatency::cpu0.data  44183135950                       # number of WriteReq MSHR miss ticks (Tick)
system.cpu0.dcache.WriteReq.mshrMissLatency::total  44183135950                       # number of WriteReq MSHR miss ticks (Tick)
system.cpu0.dcache.WriteReq.mshrMissRate::cpu0.data     0.115306                       # mshr miss rate for WriteReq accesses (Ratio)
system.cpu0.dcache.WriteReq.mshrMissRate::total     0.115306                       # mshr miss rate for WriteReq accesses (Ratio)
system.cpu0.dcache.WriteReq.avgMshrMissLatency::cpu0.data 187059.737805                       # average WriteReq mshr miss latency ((Tick/Count))
system.cpu0.dcache.WriteReq.avgMshrMissLatency::total 187059.737805                       # average WriteReq mshr miss latency ((Tick/Count))
system.cpu0.dcache.power_state.pwrStateResidencyTicks::UNDEFINED  61438434066                       # Cumulative time (in ticks) in various power states (Tick)
system.cpu0.dcache.tags.tagsInUse         1022.825993                       # Average ticks per tags in use ((Tick/Count))
system.cpu0.dcache.tags.totalRefs             6439788                       # Total number of references to valid blocks. (Count)
system.cpu0.dcache.tags.sampledRefs            912182                       # Sample count of references to valid blocks. (Count)
system.cpu0.dcache.tags.avgRefs              7.059762                       # Average number of references to valid blocks. ((Count/Count))
system.cpu0.dcache.tags.warmupTick             176157                       # The tick when the warmup percentage was hit. (Tick)
system.cpu0.dcache.tags.occupancies::cpu0.data  1022.825993                       # Average occupied blocks per tick, per requestor ((Count/Tick))
system.cpu0.dcache.tags.avgOccs::cpu0.data     0.998854                       # Average percentage of cache occupancy ((Ratio/Tick))
system.cpu0.dcache.tags.avgOccs::total       0.998854                       # Average percentage of cache occupancy ((Ratio/Tick))
system.cpu0.dcache.tags.occupanciesTaskId::1024         1024                       # Occupied blocks per task id (Count)
system.cpu0.dcache.tags.ageTaskId_1024::0          117                       # Occupied blocks per task id, per block age (Count)
system.cpu0.dcache.tags.ageTaskId_1024::1          906                       # Occupied blocks per task id, per block age (Count)
system.cpu0.dcache.tags.ageTaskId_1024::4            1                       # Occupied blocks per task id, per block age (Count)
system.cpu0.dcache.tags.ratioOccsTaskId::1024            1                       # Ratio of occupied blocks and all blocks, per task id (Ratio)
system.cpu0.dcache.tags.tagAccesses          20129848                       # Number of tag accesses (Count)
system.cpu0.dcache.tags.dataAccesses         20129848                       # Number of data accesses (Count)
system.cpu0.dcache.tags.power_state.pwrStateResidencyTicks::UNDEFINED  61438434066                       # Cumulative time (in ticks) in various power states (Tick)
system.cpu0.decode.idleCycles                 2735155                       # Number of cycles decode is idle (Cycle)
system.cpu0.decode.blockedCycles            173735536                       # Number of cycles decode is blocked (Cycle)
system.cpu0.decode.runCycles                  5660828                       # Number of cycles decode is running (Cycle)
system.cpu0.decode.unblockCycles              2035358                       # Number of cycles decode is unblocking (Cycle)
system.cpu0.decode.squashCycles                 10651                       # Number of cycles decode is squashing (Cycle)
system.cpu0.decode.branchResolved             2847698                       # Number of times decode resolved a branch (Count)
system.cpu0.decode.branchMispred                 1202                       # Number of times decode detected a branch misprediction (Count)
system.cpu0.decode.decodedInsts              56886636                       # Number of instructions handled by decode (Count)
system.cpu0.decode.squashedInsts                 5691                       # Number of squashed instructions handled by decode (Count)
system.cpu0.dtb_walker_cache.blockedCycles::no_mshrs            0                       # number of cycles access was blocked (Cycle)
system.cpu0.dtb_walker_cache.blockedCycles::no_targets            0                       # number of cycles access was blocked (Cycle)
system.cpu0.dtb_walker_cache.blockedCauses::no_mshrs            0                       # number of times access was blocked (Count)
system.cpu0.dtb_walker_cache.blockedCauses::no_targets            0                       # number of times access was blocked (Count)
system.cpu0.dtb_walker_cache.avgBlocked::no_mshrs          nan                       # average number of cycles each access was blocked ((Cycle/Count))
system.cpu0.dtb_walker_cache.avgBlocked::no_targets          nan                       # average number of cycles each access was blocked ((Cycle/Count))
system.cpu0.dtb_walker_cache.replacements            0                       # number of replacements (Count)
system.cpu0.dtb_walker_cache.power_state.pwrStateResidencyTicks::UNDEFINED  61438434066                       # Cumulative time (in ticks) in various power states (Tick)
system.cpu0.dtb_walker_cache.tags.tagsInUse            0                       # Average ticks per tags in use ((Tick/Count))
system.cpu0.dtb_walker_cache.tags.totalRefs            0                       # Total number of references to valid blocks. (Count)
system.cpu0.dtb_walker_cache.tags.sampledRefs            0                       # Sample count of references to valid blocks. (Count)
system.cpu0.dtb_walker_cache.tags.avgRefs          nan                       # Average number of references to valid blocks. ((Count/Count))
system.cpu0.dtb_walker_cache.tags.warmupTick            0                       # The tick when the warmup percentage was hit. (Tick)
system.cpu0.dtb_walker_cache.tags.tagAccesses            0                       # Number of tag accesses (Count)
system.cpu0.dtb_walker_cache.tags.dataAccesses            0                       # Number of data accesses (Count)
system.cpu0.dtb_walker_cache.tags.power_state.pwrStateResidencyTicks::UNDEFINED  61438434066                       # Cumulative time (in ticks) in various power states (Tick)
system.cpu0.fetch.icacheStallCycles           3502442                       # Number of cycles fetch is stalled on an Icache miss (Cycle)
system.cpu0.fetch.insts                      30570767                       # Number of instructions fetch has processed (Count)
system.cpu0.fetch.branches                    6001459                       # Number of branches that fetch encountered (Count)
system.cpu0.fetch.predictedBranches           2870328                       # Number of branches that fetch has predicted taken (Count)
system.cpu0.fetch.cycles                    180657759                       # Number of cycles fetch has run and was not squashing or blocked (Cycle)
system.cpu0.fetch.squashCycles                  23664                       # Number of cycles fetch has spent squashing (Cycle)
system.cpu0.fetch.miscStallCycles                 687                       # Number of cycles fetch has spent waiting on interrupts, or bad addresses, or out of MSHRs (Cycle)
system.cpu0.fetch.pendingTrapStallCycles         4769                       # Number of stall cycles due to pending traps (Cycle)
system.cpu0.fetch.icacheWaitRetryStallCycles           39                       # Number of stall cycles due to full MSHR (Cycle)
system.cpu0.fetch.cacheLines                  3363873                       # Number of cache lines fetched (Count)
system.cpu0.fetch.icacheSquashes                 3418                       # Number of outstanding Icache misses that were squashed (Count)
system.cpu0.fetch.nisnDist::samples         184177528                       # Number of instructions fetched each cycle (Total) (Count)
system.cpu0.fetch.nisnDist::mean             0.309481                       # Number of instructions fetched each cycle (Total) (Count)
system.cpu0.fetch.nisnDist::stdev            1.435769                       # Number of instructions fetched each cycle (Total) (Count)
system.cpu0.fetch.nisnDist::underflows              0      0.00%      0.00% # Number of instructions fetched each cycle (Total) (Count)
system.cpu0.fetch.nisnDist::0               174510655     94.75%     94.75% # Number of instructions fetched each cycle (Total) (Count)
system.cpu0.fetch.nisnDist::1                  591966      0.32%     95.07% # Number of instructions fetched each cycle (Total) (Count)
system.cpu0.fetch.nisnDist::2                  466563      0.25%     95.33% # Number of instructions fetched each cycle (Total) (Count)
system.cpu0.fetch.nisnDist::3                 1183628      0.64%     95.97% # Number of instructions fetched each cycle (Total) (Count)
system.cpu0.fetch.nisnDist::4                 1701812      0.92%     96.89% # Number of instructions fetched each cycle (Total) (Count)
system.cpu0.fetch.nisnDist::5                   81899      0.04%     96.94% # Number of instructions fetched each cycle (Total) (Count)
system.cpu0.fetch.nisnDist::6                  108926      0.06%     97.00% # Number of instructions fetched each cycle (Total) (Count)
system.cpu0.fetch.nisnDist::7                  203459      0.11%     97.11% # Number of instructions fetched each cycle (Total) (Count)
system.cpu0.fetch.nisnDist::8                 5328620      2.89%    100.00% # Number of instructions fetched each cycle (Total) (Count)
system.cpu0.fetch.nisnDist::overflows               0      0.00%    100.00% # Number of instructions fetched each cycle (Total) (Count)
system.cpu0.fetch.nisnDist::min_value               0                       # Number of instructions fetched each cycle (Total) (Count)
system.cpu0.fetch.nisnDist::max_value               8                       # Number of instructions fetched each cycle (Total) (Count)
system.cpu0.fetch.nisnDist::total           184177528                       # Number of instructions fetched each cycle (Total) (Count)
system.cpu0.fetch.branchRate                 0.032528                       # Number of branch fetches per cycle (Ratio)
system.cpu0.fetch.rate                       0.165695                       # Number of inst fetches per cycle ((Count/Cycle))
system.cpu0.icache.demandHits::cpu0.inst      3359950                       # number of demand (read+write) hits (Count)
system.cpu0.icache.demandHits::total          3359950                       # number of demand (read+write) hits (Count)
system.cpu0.icache.overallHits::cpu0.inst      3359950                       # number of overall hits (Count)
system.cpu0.icache.overallHits::total         3359950                       # number of overall hits (Count)
system.cpu0.icache.demandMisses::cpu0.inst         3923                       # number of demand (read+write) misses (Count)
system.cpu0.icache.demandMisses::total           3923                       # number of demand (read+write) misses (Count)
system.cpu0.icache.overallMisses::cpu0.inst         3923                       # number of overall misses (Count)
system.cpu0.icache.overallMisses::total          3923                       # number of overall misses (Count)
system.cpu0.icache.demandMissLatency::cpu0.inst    272951774                       # number of demand (read+write) miss ticks (Tick)
system.cpu0.icache.demandMissLatency::total    272951774                       # number of demand (read+write) miss ticks (Tick)
system.cpu0.icache.overallMissLatency::cpu0.inst    272951774                       # number of overall miss ticks (Tick)
system.cpu0.icache.overallMissLatency::total    272951774                       # number of overall miss ticks (Tick)
system.cpu0.icache.demandAccesses::cpu0.inst      3363873                       # number of demand (read+write) accesses (Count)
system.cpu0.icache.demandAccesses::total      3363873                       # number of demand (read+write) accesses (Count)
system.cpu0.icache.overallAccesses::cpu0.inst      3363873                       # number of overall (read+write) accesses (Count)
system.cpu0.icache.overallAccesses::total      3363873                       # number of overall (read+write) accesses (Count)
system.cpu0.icache.demandMissRate::cpu0.inst     0.001166                       # miss rate for demand accesses (Ratio)
system.cpu0.icache.demandMissRate::total     0.001166                       # miss rate for demand accesses (Ratio)
system.cpu0.icache.overallMissRate::cpu0.inst     0.001166                       # miss rate for overall accesses (Ratio)
system.cpu0.icache.overallMissRate::total     0.001166                       # miss rate for overall accesses (Ratio)
system.cpu0.icache.demandAvgMissLatency::cpu0.inst 69577.306653                       # average overall miss latency in ticks ((Tick/Count))
system.cpu0.icache.demandAvgMissLatency::total 69577.306653                       # average overall miss latency in ticks ((Tick/Count))
system.cpu0.icache.overallAvgMissLatency::cpu0.inst 69577.306653                       # average overall miss latency ((Tick/Count))
system.cpu0.icache.overallAvgMissLatency::total 69577.306653                       # average overall miss latency ((Tick/Count))
system.cpu0.icache.blockedCycles::no_mshrs         1507                       # number of cycles access was blocked (Cycle)
system.cpu0.icache.blockedCycles::no_targets            0                       # number of cycles access was blocked (Cycle)
system.cpu0.icache.blockedCauses::no_mshrs           10                       # number of times access was blocked (Count)
system.cpu0.icache.blockedCauses::no_targets            0                       # number of times access was blocked (Count)
system.cpu0.icache.avgBlocked::no_mshrs    150.700000                       # average number of cycles each access was blocked ((Cycle/Count))
system.cpu0.icache.avgBlocked::no_targets          nan                       # average number of cycles each access was blocked ((Cycle/Count))
system.cpu0.icache.writebacks::writebacks         2637                       # number of writebacks (Count)
system.cpu0.icache.writebacks::total             2637                       # number of writebacks (Count)
system.cpu0.icache.demandMshrHits::cpu0.inst          766                       # number of demand (read+write) MSHR hits (Count)
system.cpu0.icache.demandMshrHits::total          766                       # number of demand (read+write) MSHR hits (Count)
system.cpu0.icache.overallMshrHits::cpu0.inst          766                       # number of overall MSHR hits (Count)
system.cpu0.icache.overallMshrHits::total          766                       # number of overall MSHR hits (Count)
system.cpu0.icache.demandMshrMisses::cpu0.inst         3157                       # number of demand (read+write) MSHR misses (Count)
system.cpu0.icache.demandMshrMisses::total         3157                       # number of demand (read+write) MSHR misses (Count)
system.cpu0.icache.overallMshrMisses::cpu0.inst         3157                       # number of overall MSHR misses (Count)
system.cpu0.icache.overallMshrMisses::total         3157                       # number of overall MSHR misses (Count)
system.cpu0.icache.demandMshrMissLatency::cpu0.inst    216456659                       # number of demand (read+write) MSHR miss ticks (Tick)
system.cpu0.icache.demandMshrMissLatency::total    216456659                       # number of demand (read+write) MSHR miss ticks (Tick)
system.cpu0.icache.overallMshrMissLatency::cpu0.inst    216456659                       # number of overall MSHR miss ticks (Tick)
system.cpu0.icache.overallMshrMissLatency::total    216456659                       # number of overall MSHR miss ticks (Tick)
system.cpu0.icache.demandMshrMissRate::cpu0.inst     0.000939                       # mshr miss ratio for demand accesses (Ratio)
system.cpu0.icache.demandMshrMissRate::total     0.000939                       # mshr miss ratio for demand accesses (Ratio)
system.cpu0.icache.overallMshrMissRate::cpu0.inst     0.000939                       # mshr miss ratio for overall accesses (Ratio)
system.cpu0.icache.overallMshrMissRate::total     0.000939                       # mshr miss ratio for overall accesses (Ratio)
system.cpu0.icache.demandAvgMshrMissLatency::cpu0.inst 68564.035160                       # average overall mshr miss latency ((Tick/Count))
system.cpu0.icache.demandAvgMshrMissLatency::total 68564.035160                       # average overall mshr miss latency ((Tick/Count))
system.cpu0.icache.overallAvgMshrMissLatency::cpu0.inst 68564.035160                       # average overall mshr miss latency ((Tick/Count))
system.cpu0.icache.overallAvgMshrMissLatency::total 68564.035160                       # average overall mshr miss latency ((Tick/Count))
system.cpu0.icache.replacements                  2637                       # number of replacements (Count)
system.cpu0.icache.ReadReq.hits::cpu0.inst      3359950                       # number of ReadReq hits (Count)
system.cpu0.icache.ReadReq.hits::total        3359950                       # number of ReadReq hits (Count)
system.cpu0.icache.ReadReq.misses::cpu0.inst         3923                       # number of ReadReq misses (Count)
system.cpu0.icache.ReadReq.misses::total         3923                       # number of ReadReq misses (Count)
system.cpu0.icache.ReadReq.missLatency::cpu0.inst    272951774                       # number of ReadReq miss ticks (Tick)
system.cpu0.icache.ReadReq.missLatency::total    272951774                       # number of ReadReq miss ticks (Tick)
system.cpu0.icache.ReadReq.accesses::cpu0.inst      3363873                       # number of ReadReq accesses(hits+misses) (Count)
system.cpu0.icache.ReadReq.accesses::total      3363873                       # number of ReadReq accesses(hits+misses) (Count)
system.cpu0.icache.ReadReq.missRate::cpu0.inst     0.001166                       # miss rate for ReadReq accesses (Ratio)
system.cpu0.icache.ReadReq.missRate::total     0.001166                       # miss rate for ReadReq accesses (Ratio)
system.cpu0.icache.ReadReq.avgMissLatency::cpu0.inst 69577.306653                       # average ReadReq miss latency ((Tick/Count))
system.cpu0.icache.ReadReq.avgMissLatency::total 69577.306653                       # average ReadReq miss latency ((Tick/Count))
system.cpu0.icache.ReadReq.mshrHits::cpu0.inst          766                       # number of ReadReq MSHR hits (Count)
system.cpu0.icache.ReadReq.mshrHits::total          766                       # number of ReadReq MSHR hits (Count)
system.cpu0.icache.ReadReq.mshrMisses::cpu0.inst         3157                       # number of ReadReq MSHR misses (Count)
system.cpu0.icache.ReadReq.mshrMisses::total         3157                       # number of ReadReq MSHR misses (Count)
system.cpu0.icache.ReadReq.mshrMissLatency::cpu0.inst    216456659                       # number of ReadReq MSHR miss ticks (Tick)
system.cpu0.icache.ReadReq.mshrMissLatency::total    216456659                       # number of ReadReq MSHR miss ticks (Tick)
system.cpu0.icache.ReadReq.mshrMissRate::cpu0.inst     0.000939                       # mshr miss rate for ReadReq accesses (Ratio)
system.cpu0.icache.ReadReq.mshrMissRate::total     0.000939                       # mshr miss rate for ReadReq accesses (Ratio)
system.cpu0.icache.ReadReq.avgMshrMissLatency::cpu0.inst 68564.035160                       # average ReadReq mshr miss latency ((Tick/Count))
system.cpu0.icache.ReadReq.avgMshrMissLatency::total 68564.035160                       # average ReadReq mshr miss latency ((Tick/Count))
system.cpu0.icache.power_state.pwrStateResidencyTicks::UNDEFINED  61438434066                       # Cumulative time (in ticks) in various power states (Tick)
system.cpu0.icache.tags.tagsInUse          509.482119                       # Average ticks per tags in use ((Tick/Count))
system.cpu0.icache.tags.totalRefs             3363106                       # Total number of references to valid blocks. (Count)
system.cpu0.icache.tags.sampledRefs              3156                       # Sample count of references to valid blocks. (Count)
system.cpu0.icache.tags.avgRefs           1065.622940                       # Average number of references to valid blocks. ((Count/Count))
system.cpu0.icache.tags.warmupTick              87246                       # The tick when the warmup percentage was hit. (Tick)
system.cpu0.icache.tags.occupancies::cpu0.inst   509.482119                       # Average occupied blocks per tick, per requestor ((Count/Tick))
system.cpu0.icache.tags.avgOccs::cpu0.inst     0.995082                       # Average percentage of cache occupancy ((Ratio/Tick))
system.cpu0.icache.tags.avgOccs::total       0.995082                       # Average percentage of cache occupancy ((Ratio/Tick))
system.cpu0.icache.tags.occupanciesTaskId::1024          510                       # Occupied blocks per task id (Count)
system.cpu0.icache.tags.ageTaskId_1024::0          109                       # Occupied blocks per task id, per block age (Count)
system.cpu0.icache.tags.ageTaskId_1024::1          102                       # Occupied blocks per task id, per block age (Count)
system.cpu0.icache.tags.ageTaskId_1024::4          299                       # Occupied blocks per task id, per block age (Count)
system.cpu0.icache.tags.ratioOccsTaskId::1024     0.996094                       # Ratio of occupied blocks and all blocks, per task id (Ratio)
system.cpu0.icache.tags.tagAccesses           6730902                       # Number of tag accesses (Count)
system.cpu0.icache.tags.dataAccesses          6730902                       # Number of data accesses (Count)
system.cpu0.icache.tags.power_state.pwrStateResidencyTicks::UNDEFINED  61438434066                       # Cumulative time (in ticks) in various power states (Tick)
system.cpu0.iew.idleCycles                          0                       # Number of cycles IEW is idle (Cycle)
system.cpu0.iew.squashCycles                    10651                       # Number of cycles IEW is squashing (Cycle)
system.cpu0.iew.blockCycles                  26619283                       # Number of cycles IEW is blocking (Cycle)
system.cpu0.iew.unblockCycles                 6655517                       # Number of cycles IEW is unblocking (Cycle)
system.cpu0.iew.dispatchedInsts              56777112                       # Number of instructions dispatched to IQ (Count)
system.cpu0.iew.dispSquashedInsts                 909                       # Number of squashed instructions skipped by dispatch (Count)
system.cpu0.iew.dispLoadInsts                 7594424                       # Number of dispatched load instructions (Count)
system.cpu0.iew.dispStoreInsts                2070767                       # Number of dispatched store instructions (Count)
system.cpu0.iew.dispNonSpecInsts                  602                       # Number of dispatched non-speculative instructions (Count)
system.cpu0.iew.iqFullEvents                     6035                       # Number of times the IQ has become full, causing a stall (Count)
system.cpu0.iew.lsqFullEvents                 6520511                       # Number of times the LSQ has become full, causing a stall (Count)
system.cpu0.iew.memOrderViolationEvents           257                       # Number of memory order violations (Count)
system.cpu0.iew.predictedTakenIncorrect          2870                       # Number of branches that were predicted taken incorrectly (Count)
system.cpu0.iew.predictedNotTakenIncorrect         7353                       # Number of branches that were predicted not taken incorrectly (Count)
system.cpu0.iew.branchMispredicts               10223                       # Number of branch mispredicts detected at execute (Count)
system.cpu0.iew.instsToCommit                56617765                       # Cumulative count of insts sent to commit (Count)
system.cpu0.iew.writebackCount               56609845                       # Cumulative count of insts written-back (Count)
system.cpu0.iew.producerInst                 41487120                       # Number of instructions producing a value (Count)
system.cpu0.iew.consumerInst                 69042826                       # Number of instructions consuming a value (Count)
system.cpu0.iew.wbRate                       0.306829                       # Insts written-back per cycle ((Count/Cycle))
system.cpu0.iew.wbFanout                     0.600890                       # Average fanout of values written-back ((Count/Count))
system.cpu0.interrupts.clk_domain.clock          5328                       # Clock period in ticks (Tick)
system.cpu0.itb_walker_cache.blockedCycles::no_mshrs            0                       # number of cycles access was blocked (Cycle)
system.cpu0.itb_walker_cache.blockedCycles::no_targets            0                       # number of cycles access was blocked (Cycle)
system.cpu0.itb_walker_cache.blockedCauses::no_mshrs            0                       # number of times access was blocked (Count)
system.cpu0.itb_walker_cache.blockedCauses::no_targets            0                       # number of times access was blocked (Count)
system.cpu0.itb_walker_cache.avgBlocked::no_mshrs          nan                       # average number of cycles each access was blocked ((Cycle/Count))
system.cpu0.itb_walker_cache.avgBlocked::no_targets          nan                       # average number of cycles each access was blocked ((Cycle/Count))
system.cpu0.itb_walker_cache.replacements            0                       # number of replacements (Count)
system.cpu0.itb_walker_cache.power_state.pwrStateResidencyTicks::UNDEFINED  61438434066                       # Cumulative time (in ticks) in various power states (Tick)
system.cpu0.itb_walker_cache.tags.tagsInUse            0                       # Average ticks per tags in use ((Tick/Count))
system.cpu0.itb_walker_cache.tags.totalRefs            0                       # Total number of references to valid blocks. (Count)
[...]
system.membus.snoopTraffic                          0                       # Total snoop traffic (Byte)
system.membus.snoopFanout::samples            4631747                       # Request fanout histogram (Count)
system.membus.snoopFanout::mean                     0                       # Request fanout histogram (Count)
system.membus.snoopFanout::stdev                    0                       # Request fanout histogram (Count)
system.membus.snoopFanout::underflows               0      0.00%      0.00% # Request fanout histogram (Count)
system.membus.snoopFanout::0                  4631747    100.00%    100.00% # Request fanout histogram (Count)
system.membus.snoopFanout::1                        0      0.00%    100.00% # Request fanout histogram (Count)
system.membus.snoopFanout::overflows                0      0.00%    100.00% # Request fanout histogram (Count)
system.membus.snoopFanout::min_value                0                       # Request fanout histogram (Count)
system.membus.snoopFanout::max_value                0                       # Request fanout histogram (Count)
system.membus.snoopFanout::total              4631747                       # Request fanout histogram (Count)
system.membus.power_state.pwrStateResidencyTicks::UNDEFINED  61438434066                       # Cumulative time (in ticks) in various power states (Tick)
system.membus.reqLayer16.occupancy        18606354726                       # Layer occupancy (ticks) (Tick)
system.membus.reqLayer16.utilization              0.3                       # Layer utilization (Ratio)
system.membus.respLayer1.occupancy        23506854439                       # Layer occupancy (ticks) (Tick)
system.membus.respLayer1.utilization              0.4                       # Layer utilization (Ratio)
system.membus.snoop_filter.totRequests        9253757                       # Total number of requests made to the snoop filter. (Count)
system.membus.snoop_filter.hitSingleRequests      4628399                       # Number of requests hitting in the snoop filter with a single holder of the requested data. (Count)
system.membus.snoop_filter.hitMultiRequests            0                       # Number of requests hitting in the snoop filter with multiple (>1) holders of the requested data. (Count)
system.membus.snoop_filter.totSnoops                0                       # Total number of snoops made to the snoop filter. (Count)
system.membus.snoop_filter.hitSingleSnoops            0                       # Number of snoops hitting in the snoop filter with a single holder of the requested data. (Count)
system.membus.snoop_filter.hitMultiSnoops            0                       # Number of snoops hitting in the snoop filter with multiple (>1) holders of the requested data. (Count)
system.tol2bus.transDist::ReadResp            2759776                       # Transaction distribution (Count)
system.tol2bus.transDist::WritebackDirty      4002920                       # Transaction distribution (Count)
system.tol2bus.transDist::WritebackClean         2642                       # Transaction distribution (Count)
system.tol2bus.transDist::CleanEvict          5220407                       # Transaction distribution (Count)
system.tol2bus.transDist::UpgradeReq              256                       # Transaction distribution (Count)
system.tol2bus.transDist::UpgradeResp             256                       # Transaction distribution (Count)
system.tol2bus.transDist::ReadExReq           1877221                       # Transaction distribution (Count)
system.tol2bus.transDist::ReadExResp          1877221                       # Transaction distribution (Count)
system.tol2bus.transDist::ReadCleanReq           3711                       # Transaction distribution (Count)
system.tol2bus.transDist::ReadSharedReq       2756066                       # Transaction distribution (Count)
system.tol2bus.pktCount_system.cpu0.icache.mem_side_port::system.l2.cpu_side_port         8936                       # Packet count per connected requestor and responder (Count)
system.tol2bus.pktCount_system.cpu0.dcache.mem_side_port::system.l2.cpu_side_port      2734374                       # Packet count per connected requestor and responder (Count)
system.tol2bus.pktCount_system.cpu1.icache.mem_side_port::system.l2.cpu_side_port          247                       # Packet count per connected requestor and responder (Count)
system.tol2bus.pktCount_system.cpu1.dcache.mem_side_port::system.l2.cpu_side_port      1593714                       # Packet count per connected requestor and responder (Count)
system.tol2bus.pktCount_system.cpu2.icache.mem_side_port::system.l2.cpu_side_port          141                       # Packet count per connected requestor and responder (Count)
system.tol2bus.pktCount_system.cpu2.dcache.mem_side_port::system.l2.cpu_side_port      1593477                       # Packet count per connected requestor and responder (Count)
system.tol2bus.pktCount_system.cpu3.icache.mem_side_port::system.l2.cpu_side_port          140                       # Packet count per connected requestor and responder (Count)
system.tol2bus.pktCount_system.cpu3.dcache.mem_side_port::system.l2.cpu_side_port      1593445                       # Packet count per connected requestor and responder (Count)
system.tol2bus.pktCount_system.cpu4.icache.mem_side_port::system.l2.cpu_side_port          147                       # Packet count per connected requestor and responder (Count)
system.tol2bus.pktCount_system.cpu4.dcache.mem_side_port::system.l2.cpu_side_port      1593446                       # Packet count per connected requestor and responder (Count)
system.tol2bus.pktCount_system.cpu5.icache.mem_side_port::system.l2.cpu_side_port          135                       # Packet count per connected requestor and responder (Count)
system.tol2bus.pktCount_system.cpu5.dcache.mem_side_port::system.l2.cpu_side_port      1593427                       # Packet count per connected requestor and responder (Count)
system.tol2bus.pktCount_system.cpu6.icache.mem_side_port::system.l2.cpu_side_port          137                       # Packet count per connected requestor and responder (Count)
system.tol2bus.pktCount_system.cpu6.dcache.mem_side_port::system.l2.cpu_side_port      1593426                       # Packet count per connected requestor and responder (Count)
system.tol2bus.pktCount_system.cpu7.icache.mem_side_port::system.l2.cpu_side_port          136                       # Packet count per connected requestor and responder (Count)
system.tol2bus.pktCount_system.cpu7.dcache.mem_side_port::system.l2.cpu_side_port      1593433                       # Packet count per connected requestor and responder (Count)
system.tol2bus.pktCount::total               13898761                       # Packet count per connected requestor and responder (Count)
system.tol2bus.pktSize_system.cpu0.icache.mem_side_port::system.l2.cpu_side_port       369856                       # Cumulative packet size per connected requestor and responder (Byte)
system.tol2bus.pktSize_system.cpu0.dcache.mem_side_port::system.l2.cpu_side_port     74457472                       # Cumulative packet size per connected requestor and responder (Byte)
system.tol2bus.pktSize_system.cpu1.icache.mem_side_port::system.l2.cpu_side_port         7936                       # Cumulative packet size per connected requestor and responder (Byte)
system.tol2bus.pktSize_system.cpu1.dcache.mem_side_port::system.l2.cpu_side_port     50010112                       # Cumulative packet size per connected requestor and responder (Byte)
system.tol2bus.pktSize_system.cpu2.icache.mem_side_port::system.l2.cpu_side_port         4352                       # Cumulative packet size per connected requestor and responder (Byte)
system.tol2bus.pktSize_system.cpu2.dcache.mem_side_port::system.l2.cpu_side_port     50005184                       # Cumulative packet size per connected requestor and responder (Byte)
system.tol2bus.pktSize_system.cpu3.icache.mem_side_port::system.l2.cpu_side_port         4352                       # Cumulative packet size per connected requestor and responder (Byte)
system.tol2bus.pktSize_system.cpu3.dcache.mem_side_port::system.l2.cpu_side_port     50004160                       # Cumulative packet size per connected requestor and responder (Byte)
system.tol2bus.pktSize_system.cpu4.icache.mem_side_port::system.l2.cpu_side_port         4608                       # Cumulative packet size per connected requestor and responder (Byte)
system.tol2bus.pktSize_system.cpu4.dcache.mem_side_port::system.l2.cpu_side_port     50004352                       # Cumulative packet size per connected requestor and responder (Byte)
system.tol2bus.pktSize_system.cpu5.icache.mem_side_port::system.l2.cpu_side_port         4160                       # Cumulative packet size per connected requestor and responder (Byte)
system.tol2bus.pktSize_system.cpu5.dcache.mem_side_port::system.l2.cpu_side_port     50003520                       # Cumulative packet size per connected requestor and responder (Byte)
system.tol2bus.pktSize_system.cpu6.icache.mem_side_port::system.l2.cpu_side_port         4224                       # Cumulative packet size per connected requestor and responder (Byte)
system.tol2bus.pktSize_system.cpu6.dcache.mem_side_port::system.l2.cpu_side_port     50003712                       # Cumulative packet size per connected requestor and responder (Byte)
system.tol2bus.pktSize_system.cpu7.icache.mem_side_port::system.l2.cpu_side_port         4224                       # Cumulative packet size per connected requestor and responder (Byte)
system.tol2bus.pktSize_system.cpu7.dcache.mem_side_port::system.l2.cpu_side_port     50003712                       # Cumulative packet size per connected requestor and responder (Byte)
system.tol2bus.pktSize::total               424895936                       # Cumulative packet size per connected requestor and responder (Byte)
system.tol2bus.snoops                         4601715                       # Total snoops (Count)
system.tol2bus.snoopTraffic                 128227840                       # Total snoop traffic (Byte)
system.tol2bus.snoopFanout::samples          10247315                       # Request fanout histogram (Count)
system.tol2bus.snoopFanout::mean             0.003147                       # Request fanout histogram (Count)
system.tol2bus.snoopFanout::stdev            0.089056                       # Request fanout histogram (Count)
system.tol2bus.snoopFanout::underflows              0      0.00%      0.00% # Request fanout histogram (Count)
system.tol2bus.snoopFanout::0                10223252     99.77%     99.77% # Request fanout histogram (Count)
system.tol2bus.snoopFanout::1                   22008      0.21%     99.98% # Request fanout histogram (Count)
system.tol2bus.snoopFanout::2                     379      0.00%     99.98% # Request fanout histogram (Count)
system.tol2bus.snoopFanout::3                     248      0.00%     99.99% # Request fanout histogram (Count)
system.tol2bus.snoopFanout::4                     229      0.00%     99.99% # Request fanout histogram (Count)
system.tol2bus.snoopFanout::5                     226      0.00%     99.99% # Request fanout histogram (Count)
system.tol2bus.snoopFanout::6                     228      0.00%     99.99% # Request fanout histogram (Count)
system.tol2bus.snoopFanout::7                     639      0.01%    100.00% # Request fanout histogram (Count)
system.tol2bus.snoopFanout::8                     106      0.00%    100.00% # Request fanout histogram (Count)
system.tol2bus.snoopFanout::9                       0      0.00%    100.00% # Request fanout histogram (Count)
system.tol2bus.snoopFanout::10                      0      0.00%    100.00% # Request fanout histogram (Count)
system.tol2bus.snoopFanout::11                      0      0.00%    100.00% # Request fanout histogram (Count)
system.tol2bus.snoopFanout::12                      0      0.00%    100.00% # Request fanout histogram (Count)
system.tol2bus.snoopFanout::13                      0      0.00%    100.00% # Request fanout histogram (Count)
system.tol2bus.snoopFanout::14                      0      0.00%    100.00% # Request fanout histogram (Count)
system.tol2bus.snoopFanout::15                      0      0.00%    100.00% # Request fanout histogram (Count)
system.tol2bus.snoopFanout::16                      0      0.00%    100.00% # Request fanout histogram (Count)
system.tol2bus.snoopFanout::17                      0      0.00%    100.00% # Request fanout histogram (Count)
system.tol2bus.snoopFanout::18                      0      0.00%    100.00% # Request fanout histogram (Count)
system.tol2bus.snoopFanout::19                      0      0.00%    100.00% # Request fanout histogram (Count)
system.tol2bus.snoopFanout::20                      0      0.00%    100.00% # Request fanout histogram (Count)
system.tol2bus.snoopFanout::21                      0      0.00%    100.00% # Request fanout histogram (Count)
system.tol2bus.snoopFanout::22                      0      0.00%    100.00% # Request fanout histogram (Count)
system.tol2bus.snoopFanout::23                      0      0.00%    100.00% # Request fanout histogram (Count)
system.tol2bus.snoopFanout::24                      0      0.00%    100.00% # Request fanout histogram (Count)
system.tol2bus.snoopFanout::25                      0      0.00%    100.00% # Request fanout histogram (Count)
system.tol2bus.snoopFanout::26                      0      0.00%    100.00% # Request fanout histogram (Count)
system.tol2bus.snoopFanout::27                      0      0.00%    100.00% # Request fanout histogram (Count)
system.tol2bus.snoopFanout::28                      0      0.00%    100.00% # Request fanout histogram (Count)
system.tol2bus.snoopFanout::29                      0      0.00%    100.00% # Request fanout histogram (Count)
system.tol2bus.snoopFanout::30                      0      0.00%    100.00% # Request fanout histogram (Count)
system.tol2bus.snoopFanout::31                      0      0.00%    100.00% # Request fanout histogram (Count)
system.tol2bus.snoopFanout::32                      0      0.00%    100.00% # Request fanout histogram (Count)
system.tol2bus.snoopFanout::overflows               0      0.00%    100.00% # Request fanout histogram (Count)
system.tol2bus.snoopFanout::min_value               0                       # Request fanout histogram (Count)
system.tol2bus.snoopFanout::max_value               8                       # Request fanout histogram (Count)
system.tol2bus.snoopFanout::total            10247315                       # Request fanout histogram (Count)
system.tol2bus.power_state.pwrStateResidencyTicks::UNDEFINED  61438434066                       # Cumulative time (in ticks) in various power states (Tick)
system.tol2bus.reqLayer0.occupancy         5525769503                       # Layer occupancy (ticks) (Tick)
system.tol2bus.reqLayer0.utilization              0.1                       # Layer utilization (Ratio)
system.tol2bus.respLayer0.occupancy           3155482                       # Layer occupancy (ticks) (Tick)
system.tol2bus.respLayer0.utilization             0.0                       # Layer utilization (Ratio)
system.tol2bus.respLayer1.occupancy         911303397                       # Layer occupancy (ticks) (Tick)
system.tol2bus.respLayer1.utilization             0.0                       # Layer utilization (Ratio)
system.tol2bus.respLayer12.occupancy            76209                       # Layer occupancy (ticks) (Tick)
system.tol2bus.respLayer12.utilization            0.0                       # Layer utilization (Ratio)
system.tol2bus.respLayer13.occupancy        531065617                       # Layer occupancy (ticks) (Tick)
system.tol2bus.respLayer13.utilization            0.0                       # Layer utilization (Ratio)
system.tol2bus.respLayer16.occupancy            79205                       # Layer occupancy (ticks) (Tick)
system.tol2bus.respLayer16.utilization            0.0                       # Layer utilization (Ratio)
system.tol2bus.respLayer17.occupancy        531062637                       # Layer occupancy (ticks) (Tick)
system.tol2bus.respLayer17.utilization            0.0                       # Layer utilization (Ratio)
system.tol2bus.respLayer20.occupancy            74551                       # Layer occupancy (ticks) (Tick)
system.tol2bus.respLayer20.utilization            0.0                       # Layer utilization (Ratio)
system.tol2bus.respLayer21.occupancy        531058296                       # Layer occupancy (ticks) (Tick)
system.tol2bus.respLayer21.utilization            0.0                       # Layer utilization (Ratio)
system.tol2bus.respLayer24.occupancy            75540                       # Layer occupancy (ticks) (Tick)
system.tol2bus.respLayer24.utilization            0.0                       # Layer utilization (Ratio)
system.tol2bus.respLayer25.occupancy        531056628                       # Layer occupancy (ticks) (Tick)
system.tol2bus.respLayer25.utilization            0.0                       # Layer utilization (Ratio)
system.tol2bus.respLayer28.occupancy            73540                       # Layer occupancy (ticks) (Tick)
system.tol2bus.respLayer28.utilization            0.0                       # Layer utilization (Ratio)
system.tol2bus.respLayer29.occupancy        531057312                       # Layer occupancy (ticks) (Tick)
system.tol2bus.respLayer29.utilization            0.0                       # Layer utilization (Ratio)
system.tol2bus.respLayer4.occupancy            130141                       # Layer occupancy (ticks) (Tick)
system.tol2bus.respLayer4.utilization             0.0                       # Layer utilization (Ratio)
system.tol2bus.respLayer5.occupancy         531165864                       # Layer occupancy (ticks) (Tick)
system.tol2bus.respLayer5.utilization             0.0                       # Layer utilization (Ratio)
system.tol2bus.respLayer8.occupancy             78861                       # Layer occupancy (ticks) (Tick)
system.tol2bus.respLayer8.utilization             0.0                       # Layer utilization (Ratio)
system.tol2bus.respLayer9.occupancy         531067968                       # Layer occupancy (ticks) (Tick)
system.tol2bus.respLayer9.utilization             0.0                       # Layer utilization (Ratio)
system.tol2bus.snoop_filter.totRequests      11481665                       # Total number of requests made to the snoop filter. (Count)
system.tol2bus.snoop_filter.hitSingleRequests      5833887                       # Number of requests hitting in the snoop filter with a single holder of the requested data. (Count)
system.tol2bus.snoop_filter.hitMultiRequests        10264                       # Number of requests hitting in the snoop filter with multiple (>1) holders of the requested data. (Count)
system.tol2bus.snoop_filter.totSnoops           13626                       # Total number of snoops made to the snoop filter. (Count)
system.tol2bus.snoop_filter.hitSingleSnoops        13294                       # Number of snoops hitting in the snoop filter with a single holder of the requested data. (Count)
system.tol2bus.snoop_filter.hitMultiSnoops          332                       # Number of snoops hitting in the snoop filter with multiple (>1) holders of the requested data. (Count)
system.voltage_domain.voltage                       1                       # Voltage in Volts (Volt)
system.workload.inst.arm                            0                       # number of arm instructions executed (Count)
system.workload.inst.quiesce                        0                       # number of quiesce instructions executed (Count)

---------- End Simulation Statistics   ----------
