
---------- Begin Simulation Statistics ----------
simSeconds                                  11.869534                       # Number of seconds simulated (Second)
simTicks                                 11869534277000                       # Number of ticks simulated (Tick)
finalTick                                11869534277000                       # Number of ticks from beginning of simulation (restored from checkpoints and never reset) (Tick)
simFreq                                  1000000000000                       # The number of ticks per simulated second ((Tick/Second))
hostSeconds                                    896.65                       # Real time elapsed on the host (Second)
hostTickRate                              13237618746                       # The number of ticks simulated per host second (ticks/s) ((Tick/Second))
hostMemory                                     672256                       # Number of bytes of host memory used (Byte)
simInsts                                    103237232                       # Number of instructions simulated (Count)
simOps                                      204441950                       # Number of ops (including micro ops) simulated (Count)
hostInstRate                                   115136                       # Simulator instruction rate (inst/s) ((Count/Second))
hostOpRate                                     228006                       # Simulator op (including micro ops) rate (op/s) ((Count/Second))
system.clk_domain.clock                          1000                       # Clock period in ticks (Tick)
system.cpu.numCycles                      47478137108                       # Number of cpu cycles simulated (Cycle)
system.cpu.numWorkItemsStarted                      0                       # Number of work items this cpu started (Count)
system.cpu.numWorkItemsCompleted                    0                       # Number of work items this cpu completed (Count)
system.cpu.exec_context.thread_0.numInsts    103237232                       # Number of instructions committed (Count)
system.cpu.exec_context.thread_0.numOps     204441950                       # Number of ops (including micro ops) committed (Count)
system.cpu.exec_context.thread_0.numIntAluAccesses    163432952                       # Number of integer alu accesses (Count)
system.cpu.exec_context.thread_0.numFpAluAccesses     83009918                       # Number of float alu accesses (Count)
system.cpu.exec_context.thread_0.numVecAluAccesses            0                       # Number of vector alu accesses (Count)
system.cpu.exec_context.thread_0.numCallsReturns         3786                       # Number of times a function call or return occured (Count)
system.cpu.exec_context.thread_0.numCondCtrlInsts     18043961                       # Number of instructions that are conditional controls (Count)
system.cpu.exec_context.thread_0.numIntInsts    163432952                       # Number of integer instructions (Count)
system.cpu.exec_context.thread_0.numFpInsts     83009918                       # Number of float instructions (Count)
system.cpu.exec_context.thread_0.numVecInsts            0                       # Number of vector instructions (Count)
system.cpu.exec_context.thread_0.numIntRegReads    179566126                       # Number of times the integer registers were read (Count)
system.cpu.exec_context.thread_0.numIntRegWrites     87318894                       # Number of times the integer registers were written (Count)
system.cpu.exec_context.thread_0.numFpRegReads     90013954                       # Number of times the floating registers were read (Count)
system.cpu.exec_context.thread_0.numFpRegWrites     65007391                       # Number of times the floating registers were written (Count)
system.cpu.exec_context.thread_0.numVecRegReads            0                       # Number of times the vector registers were read (Count)
system.cpu.exec_context.thread_0.numVecRegWrites            0                       # Number of times the vector registers were written (Count)
system.cpu.exec_context.thread_0.numVecPredRegReads            0                       # Number of times the predicate registers were read (Count)
system.cpu.exec_context.thread_0.numVecPredRegWrites            0                       # Number of times the predicate registers were written (Count)
system.cpu.exec_context.thread_0.numCCRegReads     96275414                       # Number of times the CC registers were read (Count)
system.cpu.exec_context.thread_0.numCCRegWrites     66171907                       # Number of times the CC registers were written (Count)
system.cpu.exec_context.thread_0.numMiscRegReads     84180013                       # Number of times the Misc registers were read (Count)
system.cpu.exec_context.thread_0.numMiscRegWrites           18                       # Number of times the Misc registers were written (Count)
system.cpu.exec_context.thread_0.numMemRefs     43074748                       # Number of memory refs (Count)
system.cpu.exec_context.thread_0.numLoadInsts     27054144                       # Number of load instructions (Count)
system.cpu.exec_context.thread_0.numStoreInsts     16020604                       # Number of store instructions (Count)
system.cpu.exec_context.thread_0.numIdleCycles     0.004001                       # Number of idle cycles (Cycle)
system.cpu.exec_context.thread_0.numBusyCycles 47478137107.996002                       # Number of busy cycles (Cycle)
system.cpu.exec_context.thread_0.notIdleFraction     1.000000                       # Percentage of non-idle cycles (Ratio)
system.cpu.exec_context.thread_0.idleFraction     0.000000                       # Percentage of idle cycles (Ratio)
system.cpu.exec_context.thread_0.numBranches     18053477                       # Number of branches fetched (Count)
system.cpu.exec_context.thread_0.statExecutedInstType::No_OpClass         2750      0.00%      0.00% # Class of executed instruction. (Count)
system.cpu.exec_context.thread_0.statExecutedInstType::IntAlu    126357066     61.81%     61.81% # Class of executed instruction. (Count)
system.cpu.exec_context.thread_0.statExecutedInstType::IntMult          202      0.00%     61.81% # Class of executed instruction. (Count)
system.cpu.exec_context.thread_0.statExecutedInstType::IntDiv         1555      0.00%     61.81% # Class of executed instruction. (Count)
system.cpu.exec_context.thread_0.statExecutedInstType::FloatAdd     13000561      6.36%     68.17% # Class of executed instruction. (Count)
system.cpu.exec_context.thread_0.statExecutedInstType::FloatCmp            0      0.00%     68.17% # Class of executed instruction. (Count)
system.cpu.exec_context.thread_0.statExecutedInstType::FloatCvt           32      0.00%     68.17% # Class of executed instruction. (Count)
system.cpu.exec_context.thread_0.statExecutedInstType::FloatMult            0      0.00%     68.17% # Class of executed instruction. (Count)
system.cpu.exec_context.thread_0.statExecutedInstType::FloatMultAcc            0      0.00%     68.17% # Class of executed instruction. (Count)
system.cpu.exec_context.thread_0.statExecutedInstType::FloatDiv            0      0.00%     68.17% # Class of executed instruction. (Count)
system.cpu.exec_context.thread_0.statExecutedInstType::FloatMisc            0      0.00%     68.17% # Class of executed instruction. (Count)
system.cpu.exec_context.thread_0.statExecutedInstType::FloatSqrt            0      0.00%     68.17% # Class of executed instruction. (Count)
system.cpu.exec_context.thread_0.statExecutedInstType::SimdAdd          328      0.00%     68.17% # Class of executed instruction. (Count)
system.cpu.exec_context.thread_0.statExecutedInstType::SimdAddAcc            0      0.00%     68.17% # Class of executed instruction. (Count)
system.cpu.exec_context.thread_0.statExecutedInstType::SimdAlu         1553      0.00%     68.17% # Class of executed instruction. (Count)
system.cpu.exec_context.thread_0.statExecutedInstType::SimdCmp            6      0.00%     68.17% # Class of executed instruction. (Count)
system.cpu.exec_context.thread_0.statExecutedInstType::SimdCvt         1210      0.00%     68.17% # Class of executed instruction. (Count)
system.cpu.exec_context.thread_0.statExecutedInstType::SimdMisc         1561      0.00%     68.17% # Class of executed instruction. (Count)
system.cpu.exec_context.thread_0.statExecutedInstType::SimdMult            0      0.00%     68.17% # Class of executed instruction. (Count)
system.cpu.exec_context.thread_0.statExecutedInstType::SimdMultAcc            0      0.00%     68.17% # Class of executed instruction. (Count)
system.cpu.exec_context.thread_0.statExecutedInstType::SimdShift           99      0.00%     68.17% # Class of executed instruction. (Count)
system.cpu.exec_context.thread_0.statExecutedInstType::SimdShiftAcc            0      0.00%     68.17% # Class of executed instruction. (Count)
system.cpu.exec_context.thread_0.statExecutedInstType::SimdDiv            0      0.00%     68.17% # Class of executed instruction. (Count)
system.cpu.exec_context.thread_0.statExecutedInstType::SimdSqrt            0      0.00%     68.17% # Class of executed instruction. (Count)
system.cpu.exec_context.thread_0.statExecutedInstType::SimdFloatAdd     13000126      6.36%     74.53% # Class of executed instruction. (Count)
system.cpu.exec_context.thread_0.statExecutedInstType::SimdFloatAlu            0      0.00%     74.53% # Class of executed instruction. (Count)
system.cpu.exec_context.thread_0.statExecutedInstType::SimdFloatCmp           16      0.00%     74.53% # Class of executed instruction. (Count)
system.cpu.exec_context.thread_0.statExecutedInstType::SimdFloatCvt      3000222      1.47%     76.00% # Class of executed instruction. (Count)
system.cpu.exec_context.thread_0.statExecutedInstType::SimdFloatDiv           11      0.00%     76.00% # Class of executed instruction. (Count)
system.cpu.exec_context.thread_0.statExecutedInstType::SimdFloatMisc            0      0.00%     76.00% # Class of executed instruction. (Count)
system.cpu.exec_context.thread_0.statExecutedInstType::SimdFloatMult      6000094      2.93%     78.93% # Class of executed instruction. (Count)
system.cpu.exec_context.thread_0.statExecutedInstType::SimdFloatMultAcc            0      0.00%     78.93% # Class of executed instruction. (Count)
system.cpu.exec_context.thread_0.statExecutedInstType::SimdFloatSqrt            0      0.00%     78.93% # Class of executed instruction. (Count)
system.cpu.exec_context.thread_0.statExecutedInstType::SimdReduceAdd            0      0.00%     78.93% # Class of executed instruction. (Count)
system.cpu.exec_context.thread_0.statExecutedInstType::SimdReduceAlu            0      0.00%     78.93% # Class of executed instruction. (Count)
system.cpu.exec_context.thread_0.statExecutedInstType::SimdReduceCmp            0      0.00%     78.93% # Class of executed instruction. (Count)
system.cpu.exec_context.thread_0.statExecutedInstType::SimdFloatReduceAdd            0      0.00%     78.93% # Class of executed instruction. (Count)
system.cpu.exec_context.thread_0.statExecutedInstType::SimdFloatReduceCmp            0      0.00%     78.93% # Class of executed instruction. (Count)
system.cpu.exec_context.thread_0.statExecutedInstType::SimdAes            0      0.00%     78.93% # Class of executed instruction. (Count)
system.cpu.exec_context.thread_0.statExecutedInstType::SimdAesMix            0      0.00%     78.93% # Class of executed instruction. (Count)
system.cpu.exec_context.thread_0.statExecutedInstType::SimdSha1Hash            0      0.00%     78.93% # Class of executed instruction. (Count)
system.cpu.exec_context.thread_0.statExecutedInstType::SimdSha1Hash2            0      0.00%     78.93% # Class of executed instruction. (Count)
system.cpu.exec_context.thread_0.statExecutedInstType::SimdSha256Hash            0      0.00%     78.93% # Class of executed instruction. (Count)
system.cpu.exec_context.thread_0.statExecutedInstType::SimdSha256Hash2            0      0.00%     78.93% # Class of executed instruction. (Count)
system.cpu.exec_context.thread_0.statExecutedInstType::SimdShaSigma2            0      0.00%     78.93% # Class of executed instruction. (Count)
system.cpu.exec_context.thread_0.statExecutedInstType::SimdShaSigma3            0      0.00%     78.93% # Class of executed instruction. (Count)
system.cpu.exec_context.thread_0.statExecutedInstType::SimdPredAlu            0      0.00%     78.93% # Class of executed instruction. (Count)
system.cpu.exec_context.thread_0.statExecutedInstType::MemRead        52223      0.03%     78.96% # Class of executed instruction. (Count)
system.cpu.exec_context.thread_0.statExecutedInstType::MemWrite      1018996      0.50%     79.45% # Class of executed instruction. (Count)
system.cpu.exec_context.thread_0.statExecutedInstType::FloatMemRead     27001921     13.21%     92.66% # Class of executed instruction. (Count)
system.cpu.exec_context.thread_0.statExecutedInstType::FloatMemWrite     15001608      7.34%    100.00% # Class of executed instruction. (Count)
system.cpu.exec_context.thread_0.statExecutedInstType::IprAccess            0      0.00%    100.00% # Class of executed instruction. (Count)
system.cpu.exec_context.thread_0.statExecutedInstType::InstPrefetch            0      0.00%    100.00% # Class of executed instruction. (Count)
system.cpu.exec_context.thread_0.statExecutedInstType::total    204442140                       # Class of executed instruction. (Count)
system.cpu.interrupts.clk_domain.clock           4000                       # Clock period in ticks (Tick)
system.cpu.mmu.dtb.rdAccesses                27054189                       # TLB accesses on read requests (Count)
system.cpu.mmu.dtb.wrAccesses                16020626                       # TLB accesses on write requests (Count)
system.cpu.mmu.dtb.rdMisses                     43220                       # TLB misses on read requests (Count)
system.cpu.mmu.dtb.wrMisses                     29353                       # TLB misses on write requests (Count)
system.cpu.mmu.dtb.walker.power_state.pwrStateResidencyTicks::UNDEFINED 11869534277000                       # Cumulative time (in ticks) in various power states (Tick)
system.cpu.mmu.itb.rdAccesses                       0                       # TLB accesses on read requests (Count)
system.cpu.mmu.itb.wrAccesses               149310020                       # TLB accesses on write requests (Count)
system.cpu.mmu.itb.rdMisses                         0                       # TLB misses on read requests (Count)
system.cpu.mmu.itb.wrMisses                       175                       # TLB misses on write requests (Count)
system.cpu.mmu.itb.walker.power_state.pwrStateResidencyTicks::UNDEFINED 11869534277000                       # Cumulative time (in ticks) in various power states (Tick)
system.cpu.power_state.pwrStateResidencyTicks::ON 11869534277000                       # Cumulative time (in ticks) in various power states (Tick)
system.cpu.thread_0.numInsts                        0                       # Number of Instructions committed (Count)
system.cpu.thread_0.numOps                          0                       # Number of Ops committed (Count)
system.cpu.thread_0.numMemRefs                      0                       # Number of Memory References (Count)
system.cpu.workload.numSyscalls                   129                       # Number of system calls (Count)
system.cpu_clk_domain.clock                       250                       # Clock period in ticks (Tick)
system.cpu_voltage_domain.voltage                   1                       # Voltage in Volts (Volt)
system.mem_ctrls0.avgPriority_cpu.inst::samples     29490.00                       # Average QoS priority value for accepted requests (Count)
system.mem_ctrls0.avgPriority_cpu.data::samples   3267744.00                       # Average QoS priority value for accepted requests (Count)
system.mem_ctrls0.priorityMinLatency     0.000000020000                       # per QoS priority minimum request to response latency (Second)
system.mem_ctrls0.priorityMaxLatency     0.026657759000                       # per QoS priority maximum request to response latency (Second)
system.mem_ctrls0.numReadWriteTurnArounds        28230                       # Number of turnarounds from READ to WRITE (Count)
system.mem_ctrls0.numWriteReadTurnArounds        28230                       # Number of turnarounds from WRITE to READ (Count)
system.mem_ctrls0.numStayReadState           10636387                       # Number of times bus staying in READ state (Count)
system.mem_ctrls0.numStayWriteState            480023                       # Number of times bus staying in WRITE state (Count)
system.mem_ctrls0.readReqs                    2789996                       # Number of read requests accepted (Count)
system.mem_ctrls0.writeReqs                   2003953                       # Number of write requests accepted (Count)
system.mem_ctrls0.readBursts                  2790007                       # Number of controller read bursts, including those serviced by the write queue (Count)
system.mem_ctrls0.writeBursts                 2003953                       # Number of controller write bursts, including those merged in the write queue (Count)
system.mem_ctrls0.servicedByWrQ                   945                       # Number of controller read bursts serviced by the write queue (Count)
system.mem_ctrls0.mergedWrBursts              1495781                       # Number of controller write bursts merged with an existing one (Count)
system.mem_ctrls0.neitherReadNorWriteReqs            0                       # Number of requests that are neither read nor write (Count)
system.mem_ctrls0.avgRdQLen                      1.00                       # Average read queue length when enqueuing ((Count/Tick))
system.mem_ctrls0.avgWrQLen                     25.37                       # Average write queue length when enqueuing ((Count/Tick))
system.mem_ctrls0.numRdRetry                        0                       # Number of times read queue was full causing retry (Count)
system.mem_ctrls0.numWrRetry                        0                       # Number of times write queue was full causing retry (Count)
system.mem_ctrls0.readPktSize::0                 1960                       # Read request sizes (log2) (Count)
system.mem_ctrls0.readPktSize::1                  379                       # Read request sizes (log2) (Count)
system.mem_ctrls0.readPktSize::2                  745                       # Read request sizes (log2) (Count)
system.mem_ctrls0.readPktSize::3              2786923                       # Read request sizes (log2) (Count)
system.mem_ctrls0.readPktSize::4                    0                       # Read request sizes (log2) (Count)
system.mem_ctrls0.readPktSize::5                    0                       # Read request sizes (log2) (Count)
system.mem_ctrls0.readPktSize::6                    0                       # Read request sizes (log2) (Count)
system.mem_ctrls0.writePktSize::0                 127                       # Write request sizes (log2) (Count)
system.mem_ctrls0.writePktSize::1                   5                       # Write request sizes (log2) (Count)
system.mem_ctrls0.writePktSize::2                 133                       # Write request sizes (log2) (Count)
system.mem_ctrls0.writePktSize::3             2003688                       # Write request sizes (log2) (Count)
system.mem_ctrls0.writePktSize::4                   0                       # Write request sizes (log2) (Count)
system.mem_ctrls0.writePktSize::5                   0                       # Write request sizes (log2) (Count)
system.mem_ctrls0.writePktSize::6                   0                       # Write request sizes (log2) (Count)
system.mem_ctrls0.rdQLenPdf::0                2789051                       # What read queue length does an incoming req see (Count)
system.mem_ctrls0.rdQLenPdf::1                     11                       # What read queue length does an incoming req see (Count)
system.mem_ctrls0.rdQLenPdf::2                      0                       # What read queue length does an incoming req see (Count)
system.mem_ctrls0.rdQLenPdf::3                      0                       # What read queue length does an incoming req see (Count)
system.mem_ctrls0.rdQLenPdf::4                      0                       # What read queue length does an incoming req see (Count)
system.mem_ctrls0.rdQLenPdf::5                      0                       # What read queue length does an incoming req see (Count)
system.mem_ctrls0.rdQLenPdf::6                      0                       # What read queue length does an incoming req see (Count)
system.mem_ctrls0.rdQLenPdf::7                      0                       # What read queue length does an incoming req see (Count)
system.mem_ctrls0.rdQLenPdf::8                      0                       # What read queue length does an incoming req see (Count)
system.mem_ctrls0.rdQLenPdf::9                      0                       # What read queue length does an incoming req see (Count)
system.mem_ctrls0.rdQLenPdf::10                     0                       # What read queue length does an incoming req see (Count)
system.mem_ctrls0.rdQLenPdf::11                     0                       # What read queue length does an incoming req see (Count)
system.mem_ctrls0.rdQLenPdf::12                     0                       # What read queue length does an incoming req see (Count)
system.mem_ctrls0.rdQLenPdf::13                     0                       # What read queue length does an incoming req see (Count)
system.mem_ctrls0.rdQLenPdf::14                     0                       # What read queue length does an incoming req see (Count)
system.mem_ctrls0.rdQLenPdf::15                     0                       # What read queue length does an incoming req see (Count)
system.mem_ctrls0.rdQLenPdf::16                     0                       # What read queue length does an incoming req see (Count)
system.mem_ctrls0.rdQLenPdf::17                     0                       # What read queue length does an incoming req see (Count)
system.mem_ctrls0.rdQLenPdf::18                     0                       # What read queue length does an incoming req see (Count)
system.mem_ctrls0.rdQLenPdf::19                     0                       # What read queue length does an incoming req see (Count)
system.mem_ctrls0.rdQLenPdf::20                     0                       # What read queue length does an incoming req see (Count)
system.mem_ctrls0.rdQLenPdf::21                     0                       # What read queue length does an incoming req see (Count)
system.mem_ctrls0.rdQLenPdf::22                     0                       # What read queue length does an incoming req see (Count)
system.mem_ctrls0.rdQLenPdf::23                     0                       # What read queue length does an incoming req see (Count)
system.mem_ctrls0.rdQLenPdf::24                     0                       # What read queue length does an incoming req see (Count)
system.mem_ctrls0.rdQLenPdf::25                     0                       # What read queue length does an incoming req see (Count)
system.mem_ctrls0.rdQLenPdf::26                     0                       # What read queue length does an incoming req see (Count)
system.mem_ctrls0.rdQLenPdf::27                     0                       # What read queue length does an incoming req see (Count)
system.mem_ctrls0.rdQLenPdf::28                     0                       # What read queue length does an incoming req see (Count)
system.mem_ctrls0.rdQLenPdf::29                     0                       # What read queue length does an incoming req see (Count)
system.mem_ctrls0.rdQLenPdf::30                     0                       # What read queue length does an incoming req see (Count)
system.mem_ctrls0.rdQLenPdf::31                     0                       # What read queue length does an incoming req see (Count)
system.mem_ctrls0.rdQLenPdf::32                     0                       # What read queue length does an incoming req see (Count)
system.mem_ctrls0.rdQLenPdf::33                     0                       # What read queue length does an incoming req see (Count)
system.mem_ctrls0.rdQLenPdf::34                     0                       # What read queue length does an incoming req see (Count)
system.mem_ctrls0.rdQLenPdf::35                     0                       # What read queue length does an incoming req see (Count)
system.mem_ctrls0.rdQLenPdf::36                     0                       # What read queue length does an incoming req see (Count)
system.mem_ctrls0.rdQLenPdf::37                     0                       # What read queue length does an incoming req see (Count)
system.mem_ctrls0.rdQLenPdf::38                     0                       # What read queue length does an incoming req see (Count)
system.mem_ctrls0.rdQLenPdf::39                     0                       # What read queue length does an incoming req see (Count)
system.mem_ctrls0.rdQLenPdf::40                     0                       # What read queue length does an incoming req see (Count)
system.mem_ctrls0.rdQLenPdf::41                     0                       # What read queue length does an incoming req see (Count)
system.mem_ctrls0.rdQLenPdf::42                     0                       # What read queue length does an incoming req see (Count)
system.mem_ctrls0.rdQLenPdf::43                     0                       # What read queue length does an incoming req see (Count)
system.mem_ctrls0.rdQLenPdf::44                     0                       # What read queue length does an incoming req see (Count)
system.mem_ctrls0.rdQLenPdf::45                     0                       # What read queue length does an incoming req see (Count)
system.mem_ctrls0.rdQLenPdf::46                     0                       # What read queue length does an incoming req see (Count)
system.mem_ctrls0.rdQLenPdf::47                     0                       # What read queue length does an incoming req see (Count)
system.mem_ctrls0.rdQLenPdf::48                     0                       # What read queue length does an incoming req see (Count)
system.mem_ctrls0.rdQLenPdf::49                     0                       # What read queue length does an incoming req see (Count)
system.mem_ctrls0.rdQLenPdf::50                     0                       # What read queue length does an incoming req see (Count)
system.mem_ctrls0.rdQLenPdf::51                     0                       # What read queue length does an incoming req see (Count)
system.mem_ctrls0.rdQLenPdf::52                     0                       # What read queue length does an incoming req see (Count)
system.mem_ctrls0.rdQLenPdf::53                     0                       # What read queue length does an incoming req see (Count)
system.mem_ctrls0.rdQLenPdf::54                     0                       # What read queue length does an incoming req see (Count)
system.mem_ctrls0.rdQLenPdf::55                     0                       # What read queue length does an incoming req see (Count)
system.mem_ctrls0.rdQLenPdf::56                     0                       # What read queue length does an incoming req see (Count)
system.mem_ctrls0.rdQLenPdf::57                     0                       # What read queue length does an incoming req see (Count)
system.mem_ctrls0.rdQLenPdf::58                     0                       # What read queue length does an incoming req see (Count)
system.mem_ctrls0.rdQLenPdf::59                     0                       # What read queue length does an incoming req see (Count)
system.mem_ctrls0.rdQLenPdf::60                     0                       # What read queue length does an incoming req see (Count)
system.mem_ctrls0.rdQLenPdf::61                     0                       # What read queue length does an incoming req see (Count)
system.mem_ctrls0.rdQLenPdf::62                     0                       # What read queue length does an incoming req see (Count)
system.mem_ctrls0.rdQLenPdf::63                     0                       # What read queue length does an incoming req see (Count)
system.mem_ctrls0.wrQLenPdf::0                      1                       # What write queue length does an incoming req see (Count)
system.mem_ctrls0.wrQLenPdf::1                      1                       # What write queue length does an incoming req see (Count)
system.mem_ctrls0.wrQLenPdf::2                      1                       # What write queue length does an incoming req see (Count)
system.mem_ctrls0.wrQLenPdf::3                      1                       # What write queue length does an incoming req see (Count)
system.mem_ctrls0.wrQLenPdf::4                      1                       # What write queue length does an incoming req see (Count)
system.mem_ctrls0.wrQLenPdf::5                      1                       # What write queue length does an incoming req see (Count)
system.mem_ctrls0.wrQLenPdf::6                      1                       # What write queue length does an incoming req see (Count)
system.mem_ctrls0.wrQLenPdf::7                      1                       # What write queue length does an incoming req see (Count)
system.mem_ctrls0.wrQLenPdf::8                      1                       # What write queue length does an incoming req see (Count)
system.mem_ctrls0.wrQLenPdf::9                      1                       # What write queue length does an incoming req see (Count)
system.mem_ctrls0.wrQLenPdf::10                     1                       # What write queue length does an incoming req see (Count)
system.mem_ctrls0.wrQLenPdf::11                     1                       # What write queue length does an incoming req see (Count)
system.mem_ctrls0.wrQLenPdf::12                     1                       # What write queue length does an incoming req see (Count)
system.mem_ctrls0.wrQLenPdf::13                     1                       # What write queue length does an incoming req see (Count)
system.mem_ctrls0.wrQLenPdf::14                     1                       # What write queue length does an incoming req see (Count)
system.mem_ctrls0.wrQLenPdf::15                 28231                       # What write queue length does an incoming req see (Count)
system.mem_ctrls0.wrQLenPdf::16                 28231                       # What write queue length does an incoming req see (Count)
system.mem_ctrls0.wrQLenPdf::17                 28231                       # What write queue length does an incoming req see (Count)
system.mem_ctrls0.wrQLenPdf::18                 28231                       # What write queue length does an incoming req see (Count)
system.mem_ctrls0.wrQLenPdf::19                 28231                       # What write queue length does an incoming req see (Count)
system.mem_ctrls0.wrQLenPdf::20                 28231                       # What write queue length does an incoming req see (Count)
system.mem_ctrls0.wrQLenPdf::21                 28231                       # What write queue length does an incoming req see (Count)
system.mem_ctrls0.wrQLenPdf::22                 28231                       # What write queue length does an incoming req see (Count)
system.mem_ctrls0.wrQLenPdf::23                 28231                       # What write queue length does an incoming req see (Count)
system.mem_ctrls0.wrQLenPdf::24                 28231                       # What write queue length does an incoming req see (Count)
system.mem_ctrls0.wrQLenPdf::25                 28231                       # What write queue length does an incoming req see (Count)
system.mem_ctrls0.wrQLenPdf::26                 28231                       # What write queue length does an incoming req see (Count)
system.mem_ctrls0.wrQLenPdf::27                 28231                       # What write queue length does an incoming req see (Count)
system.mem_ctrls0.wrQLenPdf::28                 28231                       # What write queue length does an incoming req see (Count)
system.mem_ctrls0.wrQLenPdf::29                 28231                       # What write queue length does an incoming req see (Count)
system.mem_ctrls0.wrQLenPdf::30                 28231                       # What write queue length does an incoming req see (Count)
system.mem_ctrls0.wrQLenPdf::31                 28231                       # What write queue length does an incoming req see (Count)
system.mem_ctrls0.wrQLenPdf::32                 28230                       # What write queue length does an incoming req see (Count)
system.mem_ctrls0.wrQLenPdf::33                     0                       # What write queue length does an incoming req see (Count)
system.mem_ctrls0.wrQLenPdf::34                     0                       # What write queue length does an incoming req see (Count)
system.mem_ctrls0.wrQLenPdf::35                     0                       # What write queue length does an incoming req see (Count)
system.mem_ctrls0.wrQLenPdf::36                     0                       # What write queue length does an incoming req see (Count)
system.mem_ctrls0.wrQLenPdf::37                     0                       # What write queue length does an incoming req see (Count)
system.mem_ctrls0.wrQLenPdf::38                     0                       # What write queue length does an incoming req see (Count)
system.mem_ctrls0.wrQLenPdf::39                     0                       # What write queue length does an incoming req see (Count)
system.mem_ctrls0.wrQLenPdf::40                     0                       # What write queue length does an incoming req see (Count)
system.mem_ctrls0.wrQLenPdf::41                     0                       # What write queue length does an incoming req see (Count)
system.mem_ctrls0.wrQLenPdf::42                     0                       # What write queue length does an incoming req see (Count)
system.mem_ctrls0.wrQLenPdf::43                     0                       # What write queue length does an incoming req see (Count)
system.mem_ctrls0.wrQLenPdf::44                     0                       # What write queue length does an incoming req see (Count)
system.mem_ctrls0.wrQLenPdf::45                     0                       # What write queue length does an incoming req see (Count)
system.mem_ctrls0.wrQLenPdf::46                     0                       # What write queue length does an incoming req see (Count)
system.mem_ctrls0.wrQLenPdf::47                     0                       # What write queue length does an incoming req see (Count)
system.mem_ctrls0.wrQLenPdf::48                     0                       # What write queue length does an incoming req see (Count)
system.mem_ctrls0.wrQLenPdf::49                     0                       # What write queue length does an incoming req see (Count)
system.mem_ctrls0.wrQLenPdf::50                     0                       # What write queue length does an incoming req see (Count)
system.mem_ctrls0.wrQLenPdf::51                     0                       # What write queue length does an incoming req see (Count)
system.mem_ctrls0.wrQLenPdf::52                     0                       # What write queue length does an incoming req see (Count)
system.mem_ctrls0.wrQLenPdf::53                     0                       # What write queue length does an incoming req see (Count)
system.mem_ctrls0.wrQLenPdf::54                     0                       # What write queue length does an incoming req see (Count)
system.mem_ctrls0.wrQLenPdf::55                     0                       # What write queue length does an incoming req see (Count)
system.mem_ctrls0.wrQLenPdf::56                     0                       # What write queue length does an incoming req see (Count)
system.mem_ctrls0.wrQLenPdf::57                     0                       # What write queue length does an incoming req see (Count)
system.mem_ctrls0.wrQLenPdf::58                     0                       # What write queue length does an incoming req see (Count)
system.mem_ctrls0.wrQLenPdf::59                     0                       # What write queue length does an incoming req see (Count)
system.mem_ctrls0.wrQLenPdf::60                     0                       # What write queue length does an incoming req see (Count)
system.mem_ctrls0.wrQLenPdf::61                     0                       # What write queue length does an incoming req see (Count)
system.mem_ctrls0.wrQLenPdf::62                     0                       # What write queue length does an incoming req see (Count)
system.mem_ctrls0.wrQLenPdf::63                     0                       # What write queue length does an incoming req see (Count)
system.mem_ctrls0.rdPerTurnAround::samples        28230                       # Reads before turning the bus around for writes (Count)
system.mem_ctrls0.rdPerTurnAround::mean     85.093092                       # Reads before turning the bus around for writes (Count)
system.mem_ctrls0.rdPerTurnAround::stdev    92.196573                       # Reads before turning the bus around for writes (Count)
system.mem_ctrls0.rdPerTurnAround::0-255        28223     99.98%     99.98% # Reads before turning the bus around for writes (Count)
system.mem_ctrls0.rdPerTurnAround::256-511            1      0.00%     99.98% # Reads before turning the bus around for writes (Count)
system.mem_ctrls0.rdPerTurnAround::1024-1279            1      0.00%     99.98% # Reads before turning the bus around for writes (Count)
system.mem_ctrls0.rdPerTurnAround::1536-1791            1      0.00%     99.99% # Reads before turning the bus around for writes (Count)
system.mem_ctrls0.rdPerTurnAround::2816-3071            1      0.00%     99.99% # Reads before turning the bus around for writes (Count)
system.mem_ctrls0.rdPerTurnAround::4352-4607            1      0.00%     99.99% # Reads before turning the bus around for writes (Count)
system.mem_ctrls0.rdPerTurnAround::6400-6655            1      0.00%    100.00% # Reads before turning the bus around for writes (Count)
system.mem_ctrls0.rdPerTurnAround::9472-9727            1      0.00%    100.00% # Reads before turning the bus around for writes (Count)
system.mem_ctrls0.rdPerTurnAround::total        28230                       # Reads before turning the bus around for writes (Count)
system.mem_ctrls0.wrPerTurnAround::samples        28230                       # Writes before turning the bus around for reads (Count)
system.mem_ctrls0.wrPerTurnAround::mean            18                       # Writes before turning the bus around for reads (Count)
system.mem_ctrls0.wrPerTurnAround::gmean    18.000000                       # Writes before turning the bus around for reads (Count)
system.mem_ctrls0.wrPerTurnAround::18           28230    100.00%    100.00% # Writes before turning the bus around for reads (Count)
system.mem_ctrls0.wrPerTurnAround::total        28230                       # Writes before turning the bus around for reads (Count)
system.mem_ctrls0.bytesReadWrQ                  30240                       # Total number of bytes read from write queue (Byte)
system.mem_ctrls0.bytesReadSys               22301025                       # Total read bytes from the system interface side (Byte)
system.mem_ctrls0.bytesWrittenSys            16030173                       # Total written bytes from the system interface side (Byte)
system.mem_ctrls0.avgRdBWSys             1878845.83165268                       # Average system read bandwidth in Byte/s ((Byte/Second))
system.mem_ctrls0.avgWrBWSys             1350530.91603284                       # Average system write bandwidth in Byte/s ((Byte/Second))
system.mem_ctrls0.totGap                 11869529200000                       # Total gap between requests (Tick)
system.mem_ctrls0.avgGap                   2475939.81                       # Average gap between requests ((Tick/Count))
system.mem_ctrls0.requestorReadBytes::cpu.inst       235920                       # Per-requestor bytes read from memory (Byte)
system.mem_ctrls0.requestorReadBytes::cpu.data     22057735                       # Per-requestor bytes read from memory (Byte)
system.mem_ctrls0.requestorWriteBytes::cpu.data      4065093                       # Per-requestor bytes write to memory (Byte)
system.mem_ctrls0.requestorReadRate::cpu.inst 19876.095767055511                       # Per-requestor bytes read from memory rate ((Byte/Second))
system.mem_ctrls0.requestorReadRate::cpu.data 1858348.818516158964                       # Per-requestor bytes read from memory rate ((Byte/Second))
system.mem_ctrls0.requestorWriteRate::cpu.data 342481.255383125623                       # Per-requestor bytes write to memory rate ((Byte/Second))
system.mem_ctrls0.requestorReadAccesses::cpu.inst        29490                       # Per-requestor read serviced memory accesses (Count)
system.mem_ctrls0.requestorReadAccesses::cpu.data      2760517                       # Per-requestor read serviced memory accesses (Count)
system.mem_ctrls0.requestorWriteAccesses::cpu.data      2003953                       # Per-requestor write serviced memory accesses (Count)
system.mem_ctrls0.requestorReadTotalLat::cpu.inst   1043996000                       # Per-requestor read total memory access latency (Tick)
system.mem_ctrls0.requestorReadTotalLat::cpu.data  97625858000                       # Per-requestor read total memory access latency (Tick)
system.mem_ctrls0.requestorWriteTotalLat::cpu.data 234803438106000                       # Per-requestor write total memory access latency (Tick)
system.mem_ctrls0.requestorReadAvgLat::cpu.inst     35401.70                       # Per-requestor read average memory access latency ((Tick/Count))
system.mem_ctrls0.requestorReadAvgLat::cpu.data     35365.06                       # Per-requestor read average memory access latency ((Tick/Count))
system.mem_ctrls0.requestorWriteAvgLat::cpu.data 117170132.29                       # Per-requestor write average memory access latency ((Tick/Count))
system.mem_ctrls0.dram.bytesRead::cpu.inst       235920                       # Number of bytes read from this memory (Byte)
system.mem_ctrls0.dram.bytesRead::cpu.data     22065105                       # Number of bytes read from this memory (Byte)
system.mem_ctrls0.dram.bytesRead::total      22301025                       # Number of bytes read from this memory (Byte)
system.mem_ctrls0.dram.bytesInstRead::cpu.inst       235920                       # Number of instructions bytes read from this memory (Byte)
system.mem_ctrls0.dram.bytesInstRead::total       235920                       # Number of instructions bytes read from this memory (Byte)
system.mem_ctrls0.dram.bytesWritten::cpu.data     16030173                       # Number of bytes written to this memory (Byte)
system.mem_ctrls0.dram.bytesWritten::total     16030173                       # Number of bytes written to this memory (Byte)
system.mem_ctrls0.dram.numReads::cpu.inst        29490                       # Number of read requests responded to by this memory (Count)
system.mem_ctrls0.dram.numReads::cpu.data      2760506                       # Number of read requests responded to by this memory (Count)
system.mem_ctrls0.dram.numReads::total        2789996                       # Number of read requests responded to by this memory (Count)
system.mem_ctrls0.dram.numWrites::cpu.data      2003953                       # Number of write requests responded to by this memory (Count)
system.mem_ctrls0.dram.numWrites::total       2003953                       # Number of write requests responded to by this memory (Count)
system.mem_ctrls0.dram.bwRead::cpu.inst         19876                       # Total read bandwidth from this memory ((Byte/Second))
system.mem_ctrls0.dram.bwRead::cpu.data       1858970                       # Total read bandwidth from this memory ((Byte/Second))
system.mem_ctrls0.dram.bwRead::total          1878846                       # Total read bandwidth from this memory ((Byte/Second))
system.mem_ctrls0.dram.bwInstRead::cpu.inst        19876                       # Instruction read bandwidth from this memory ((Byte/Second))
system.mem_ctrls0.dram.bwInstRead::total        19876                       # Instruction read bandwidth from this memory ((Byte/Second))
system.mem_ctrls0.dram.bwWrite::cpu.data      1350531                       # Write bandwidth from this memory ((Byte/Second))
system.mem_ctrls0.dram.bwWrite::total         1350531                       # Write bandwidth from this memory ((Byte/Second))
system.mem_ctrls0.dram.bwTotal::cpu.inst        19876                       # Total bandwidth to/from this memory ((Byte/Second))
system.mem_ctrls0.dram.bwTotal::cpu.data      3209501                       # Total bandwidth to/from this memory ((Byte/Second))
system.mem_ctrls0.dram.bwTotal::total         3229377                       # Total bandwidth to/from this memory ((Byte/Second))
system.mem_ctrls0.dram.readBursts             2789062                       # Number of DRAM read bursts (Count)
system.mem_ctrls0.dram.writeBursts             508140                       # Number of DRAM write bursts (Count)
system.mem_ctrls0.dram.perBankRdBursts::0       177184                       # Per bank write bursts (Count)
system.mem_ctrls0.dram.perBankRdBursts::1       173209                       # Per bank write bursts (Count)
system.mem_ctrls0.dram.perBankRdBursts::2       173915                       # Per bank write bursts (Count)
system.mem_ctrls0.dram.perBankRdBursts::3       175287                       # Per bank write bursts (Count)
system.mem_ctrls0.dram.perBankRdBursts::4       173074                       # Per bank write bursts (Count)
system.mem_ctrls0.dram.perBankRdBursts::5       172728                       # Per bank write bursts (Count)
system.mem_ctrls0.dram.perBankRdBursts::6       173371                       # Per bank write bursts (Count)
system.mem_ctrls0.dram.perBankRdBursts::7       172752                       # Per bank write bursts (Count)
system.mem_ctrls0.dram.perBankRdBursts::8       172263                       # Per bank write bursts (Count)
system.mem_ctrls0.dram.perBankRdBursts::9       174982                       # Per bank write bursts (Count)
system.mem_ctrls0.dram.perBankRdBursts::10       177680                       # Per bank write bursts (Count)
system.mem_ctrls0.dram.perBankRdBursts::11       175918                       # Per bank write bursts (Count)
system.mem_ctrls0.dram.perBankRdBursts::12       172155                       # Per bank write bursts (Count)
system.mem_ctrls0.dram.perBankRdBursts::13       174939                       # Per bank write bursts (Count)
system.mem_ctrls0.dram.perBankRdBursts::14       172144                       # Per bank write bursts (Count)
system.mem_ctrls0.dram.perBankRdBursts::15       177461                       # Per bank write bursts (Count)
system.mem_ctrls0.dram.perBankWrBursts::0        31757                       # Per bank write bursts (Count)
system.mem_ctrls0.dram.perBankWrBursts::1        31758                       # Per bank write bursts (Count)
system.mem_ctrls0.dram.perBankWrBursts::2        31882                       # Per bank write bursts (Count)
system.mem_ctrls0.dram.perBankWrBursts::3        31849                       # Per bank write bursts (Count)
system.mem_ctrls0.dram.perBankWrBursts::4        31745                       # Per bank write bursts (Count)
system.mem_ctrls0.dram.perBankWrBursts::5        31753                       # Per bank write bursts (Count)
system.mem_ctrls0.dram.perBankWrBursts::6        31742                       # Per bank write bursts (Count)
system.mem_ctrls0.dram.perBankWrBursts::7        31729                       # Per bank write bursts (Count)
system.mem_ctrls0.dram.perBankWrBursts::8        31737                       # Per bank write bursts (Count)
system.mem_ctrls0.dram.perBankWrBursts::9        31726                       # Per bank write bursts (Count)
system.mem_ctrls0.dram.perBankWrBursts::10        31755                       # Per bank write bursts (Count)
system.mem_ctrls0.dram.perBankWrBursts::11        31789                       # Per bank write bursts (Count)
system.mem_ctrls0.dram.perBankWrBursts::12        31726                       # Per bank write bursts (Count)
system.mem_ctrls0.dram.perBankWrBursts::13        31743                       # Per bank write bursts (Count)
system.mem_ctrls0.dram.perBankWrBursts::14        31719                       # Per bank write bursts (Count)
system.mem_ctrls0.dram.perBankWrBursts::15        31730                       # Per bank write bursts (Count)
system.mem_ctrls0.dram.totQLat            42888614000                       # Total ticks spent queuing (Tick)
system.mem_ctrls0.dram.totBusLat           5578124000                       # Total ticks spent in databus transfers (Tick)
system.mem_ctrls0.dram.totMemAccLat       98669854000                       # Total ticks spent from burst creation until serviced by the DRAM (Tick)
system.mem_ctrls0.dram.avgQLat               15377.43                       # Average queueing delay per DRAM burst ((Tick/Count))
system.mem_ctrls0.dram.avgBusLat              2000.00                       # Average bus latency per DRAM burst ((Tick/Count))
system.mem_ctrls0.dram.avgMemAccLat          35377.43                       # Average memory access latency per DRAM burst ((Tick/Count))
system.mem_ctrls0.dram.readRowHits               1268                       # Number of row buffer hits during reads (Count)
system.mem_ctrls0.dram.writeRowHits            436958                       # Number of row buffer hits during writes (Count)
system.mem_ctrls0.dram.readRowHitRate            0.05                       # Row buffer hit rate for reads (Ratio)
system.mem_ctrls0.dram.writeRowHitRate          85.99                       # Row buffer hit rate for writes (Ratio)
system.mem_ctrls0.dram.bytesPerActivate::samples      2858976                       # Bytes accessed per row activation (Byte)
system.mem_ctrls0.dram.bytesPerActivate::mean    36.904984                       # Bytes accessed per row activation (Byte)
system.mem_ctrls0.dram.bytesPerActivate::gmean    33.489766                       # Bytes accessed per row activation (Byte)
system.mem_ctrls0.dram.bytesPerActivate::stdev    33.845772                       # Bytes accessed per row activation (Byte)
system.mem_ctrls0.dram.bytesPerActivate::32-63      2792991     97.69%     97.69% # Bytes accessed per row activation (Byte)
system.mem_ctrls0.dram.bytesPerActivate::64-95         1449      0.05%     97.74% # Bytes accessed per row activation (Byte)
system.mem_ctrls0.dram.bytesPerActivate::96-127         3433      0.12%     97.86% # Bytes accessed per row activation (Byte)
system.mem_ctrls0.dram.bytesPerActivate::128-159         2455      0.09%     97.95% # Bytes accessed per row activation (Byte)
system.mem_ctrls0.dram.bytesPerActivate::160-191         8533      0.30%     98.25% # Bytes accessed per row activation (Byte)
system.mem_ctrls0.dram.bytesPerActivate::192-223         1655      0.06%     98.30% # Bytes accessed per row activation (Byte)
system.mem_ctrls0.dram.bytesPerActivate::224-255         3241      0.11%     98.42% # Bytes accessed per row activation (Byte)
system.mem_ctrls0.dram.bytesPerActivate::256-287        21318      0.75%     99.16% # Bytes accessed per row activation (Byte)
system.mem_ctrls0.dram.bytesPerActivate::288-319         8336      0.29%     99.46% # Bytes accessed per row activation (Byte)
system.mem_ctrls0.dram.bytesPerActivate::320-351        13179      0.46%     99.92% # Bytes accessed per row activation (Byte)
system.mem_ctrls0.dram.bytesPerActivate::352-383          556      0.02%     99.94% # Bytes accessed per row activation (Byte)
system.mem_ctrls0.dram.bytesPerActivate::384-415         1355      0.05%     99.98% # Bytes accessed per row activation (Byte)
system.mem_ctrls0.dram.bytesPerActivate::416-447          473      0.02%    100.00% # Bytes accessed per row activation (Byte)
system.mem_ctrls0.dram.bytesPerActivate::448-479            1      0.00%    100.00% # Bytes accessed per row activation (Byte)
system.mem_ctrls0.dram.bytesPerActivate::480-511            1      0.00%    100.00% # Bytes accessed per row activation (Byte)
system.mem_ctrls0.dram.bytesPerActivate::total      2858976                       # Bytes accessed per row activation (Byte)
system.mem_ctrls0.dram.bytesRead             89249984                       # Total bytes read (Byte)
system.mem_ctrls0.dram.bytesWritten          16260480                       # Total bytes written (Byte)
system.mem_ctrls0.dram.avgRdBW               7.519249                       # Average DRAM read bandwidth in MiBytes/s ((Byte/Second))
system.mem_ctrls0.dram.avgWrBW               1.369934                       # Average DRAM write bandwidth in MiBytes/s ((Byte/Second))
system.mem_ctrls0.dram.peakBW                16000.00                       # Theoretical peak bandwidth in MiByte/s ((Byte/Second))
system.mem_ctrls0.dram.busUtil                   0.06                       # Data bus utilization in percentage (Ratio)
system.mem_ctrls0.dram.busUtilRead               0.05                       # Data bus utilization in percentage for reads (Ratio)
system.mem_ctrls0.dram.busUtilWrite              0.01                       # Data bus utilization in percentage for writes (Ratio)
system.mem_ctrls0.dram.pageHitRate              13.29                       # Row buffer hit rate, read and write combined (Ratio)
system.mem_ctrls0.dram.power_state.pwrStateResidencyTicks::UNDEFINED 11869534277000                       # Cumulative time (in ticks) in various power states (Tick)
system.mem_ctrls0.dram.rank0.actEnergy              0                       # Energy for activate commands per rank (pJ) (Joule)
system.mem_ctrls0.dram.rank0.preEnergy              0                       # Energy for precharge commands per rank (pJ) (Joule)
system.mem_ctrls0.dram.rank0.readEnergy             0                       # Energy for read commands per rank (pJ) (Joule)
system.mem_ctrls0.dram.rank0.writeEnergy            0                       # Energy for write commands per rank (pJ) (Joule)
system.mem_ctrls0.dram.rank0.refreshEnergy            0                       # Energy for refresh commands per rank (pJ) (Joule)
system.mem_ctrls0.dram.rank0.actBackEnergy            0                       # Energy for active background per rank (pJ) (Joule)
system.mem_ctrls0.dram.rank0.preBackEnergy            0                       # Energy for precharge background per rank (pJ) (Joule)
system.mem_ctrls0.dram.rank0.actPowerDownEnergy            0                       # Energy for active power-down per rank (pJ) (Joule)
system.mem_ctrls0.dram.rank0.prePowerDownEnergy            0                       # Energy for precharge power-down per rank (pJ) (Joule)
system.mem_ctrls0.dram.rank0.selfRefreshEnergy            0                       # Energy for self refresh per rank (pJ) (Joule)
system.mem_ctrls0.dram.rank0.totalEnergy            0                       # Total energy per rank (pJ) (Joule)
system.mem_ctrls0.dram.rank0.averagePower            0                       # Core power per rank (mW) (Watt)
system.mem_ctrls0.dram.rank0.totalIdleTime            0                       # Total Idle time Per DRAM Rank (Tick)
system.mem_ctrls0.dram.rank0.pwrStateTime::IDLE 11038419881000                       # Time in different power states (Tick)
system.mem_ctrls0.dram.rank0.pwrStateTime::REF 671975480000                       # Time in different power states (Tick)
system.mem_ctrls0.dram.rank0.pwrStateTime::SREF            0                       # Time in different power states (Tick)
system.mem_ctrls0.dram.rank0.pwrStateTime::PRE_PDN            0                       # Time in different power states (Tick)
system.mem_ctrls0.dram.rank0.pwrStateTime::ACT 159138916000                       # Time in different power states (Tick)
system.mem_ctrls0.dram.rank0.pwrStateTime::ACT_PDN            0                       # Time in different power states (Tick)
system.mem_ctrls0.power_state.pwrStateResidencyTicks::UNDEFINED 11869534277000                       # Cumulative time (in ticks) in various power states (Tick)
system.mem_ctrls1.avgPriority_cpu.inst::samples  21018105.00                       # Average QoS priority value for accepted requests (Count)
system.mem_ctrls1.avgPriority_cpu.data::samples   4263246.00                       # Average QoS priority value for accepted requests (Count)
system.mem_ctrls1.priorityMinLatency     0.000000020000                       # per QoS priority minimum request to response latency (Second)
system.mem_ctrls1.priorityMaxLatency     4.055124243000                       # per QoS priority maximum request to response latency (Second)
system.mem_ctrls1.numReadWriteTurnArounds        28227                       # Number of turnarounds from READ to WRITE (Count)
system.mem_ctrls1.numWriteReadTurnArounds        28227                       # Number of turnarounds from WRITE to READ (Count)
system.mem_ctrls1.numStayReadState           54603206                       # Number of times bus staying in READ state (Count)
system.mem_ctrls1.numStayWriteState            479954                       # Number of times bus staying in WRITE state (Count)
system.mem_ctrls1.readReqs                   24774010                       # Number of read requests accepted (Count)
system.mem_ctrls1.writeReqs                   2002379                       # Number of write requests accepted (Count)
system.mem_ctrls1.readBursts                 24774013                       # Number of controller read bursts, including those serviced by the write queue (Count)
system.mem_ctrls1.writeBursts                 2002379                       # Number of controller write bursts, including those merged in the write queue (Count)
system.mem_ctrls1.servicedByWrQ                   762                       # Number of controller read bursts serviced by the write queue (Count)
system.mem_ctrls1.mergedWrBursts              1494279                       # Number of controller write bursts merged with an existing one (Count)
system.mem_ctrls1.neitherReadNorWriteReqs            0                       # Number of requests that are neither read nor write (Count)
system.mem_ctrls1.avgRdQLen                      1.00                       # Average read queue length when enqueuing ((Count/Tick))
system.mem_ctrls1.avgWrQLen                     25.35                       # Average write queue length when enqueuing ((Count/Tick))
system.mem_ctrls1.numRdRetry                        0                       # Number of times read queue was full causing retry (Count)
system.mem_ctrls1.numWrRetry                        0                       # Number of times write queue was full causing retry (Count)
system.mem_ctrls1.readPktSize::0                 1061                       # Read request sizes (log2) (Count)
system.mem_ctrls1.readPktSize::1                  416                       # Read request sizes (log2) (Count)
system.mem_ctrls1.readPktSize::2                 1014                       # Read request sizes (log2) (Count)
system.mem_ctrls1.readPktSize::3             24771522                       # Read request sizes (log2) (Count)
system.mem_ctrls1.readPktSize::4                    0                       # Read request sizes (log2) (Count)
system.mem_ctrls1.readPktSize::5                    0                       # Read request sizes (log2) (Count)
system.mem_ctrls1.readPktSize::6                    0                       # Read request sizes (log2) (Count)
system.mem_ctrls1.writePktSize::0                  47                       # Write request sizes (log2) (Count)
system.mem_ctrls1.writePktSize::1                  15                       # Write request sizes (log2) (Count)
system.mem_ctrls1.writePktSize::2                 247                       # Write request sizes (log2) (Count)
system.mem_ctrls1.writePktSize::3             2002070                       # Write request sizes (log2) (Count)
system.mem_ctrls1.writePktSize::4                   0                       # Write request sizes (log2) (Count)
system.mem_ctrls1.writePktSize::5                   0                       # Write request sizes (log2) (Count)
system.mem_ctrls1.writePktSize::6                   0                       # Write request sizes (log2) (Count)
system.mem_ctrls1.rdQLenPdf::0               24773248                       # What read queue length does an incoming req see (Count)
system.mem_ctrls1.rdQLenPdf::1                      3                       # What read queue length does an incoming req see (Count)
system.mem_ctrls1.rdQLenPdf::2                      0                       # What read queue length does an incoming req see (Count)
system.mem_ctrls1.rdQLenPdf::3                      0                       # What read queue length does an incoming req see (Count)
system.mem_ctrls1.rdQLenPdf::4                      0                       # What read queue length does an incoming req see (Count)
system.mem_ctrls1.rdQLenPdf::5                      0                       # What read queue length does an incoming req see (Count)
system.mem_ctrls1.rdQLenPdf::6                      0                       # What read queue length does an incoming req see (Count)
system.mem_ctrls1.rdQLenPdf::7                      0                       # What read queue length does an incoming req see (Count)
system.mem_ctrls1.rdQLenPdf::8                      0                       # What read queue length does an incoming req see (Count)
system.mem_ctrls1.rdQLenPdf::9                      0                       # What read queue length does an incoming req see (Count)
system.mem_ctrls1.rdQLenPdf::10                     0                       # What read queue length does an incoming req see (Count)
system.mem_ctrls1.rdQLenPdf::11                     0                       # What read queue length does an incoming req see (Count)
system.mem_ctrls1.rdQLenPdf::12                     0                       # What read queue length does an incoming req see (Count)
system.mem_ctrls1.rdQLenPdf::13                     0                       # What read queue length does an incoming req see (Count)
system.mem_ctrls1.rdQLenPdf::14                     0                       # What read queue length does an incoming req see (Count)
system.mem_ctrls1.rdQLenPdf::15                     0                       # What read queue length does an incoming req see (Count)
system.mem_ctrls1.rdQLenPdf::16                     0                       # What read queue length does an incoming req see (Count)
system.mem_ctrls1.rdQLenPdf::17                     0                       # What read queue length does an incoming req see (Count)
system.mem_ctrls1.rdQLenPdf::18                     0                       # What read queue length does an incoming req see (Count)
system.mem_ctrls1.rdQLenPdf::19                     0                       # What read queue length does an incoming req see (Count)
system.mem_ctrls1.rdQLenPdf::20                     0                       # What read queue length does an incoming req see (Count)
system.mem_ctrls1.rdQLenPdf::21                     0                       # What read queue length does an incoming req see (Count)
system.mem_ctrls1.rdQLenPdf::22                     0                       # What read queue length does an incoming req see (Count)
system.mem_ctrls1.rdQLenPdf::23                     0                       # What read queue length does an incoming req see (Count)
system.mem_ctrls1.rdQLenPdf::24                     0                       # What read queue length does an incoming req see (Count)
system.mem_ctrls1.rdQLenPdf::25                     0                       # What read queue length does an incoming req see (Count)
system.mem_ctrls1.rdQLenPdf::26                     0                       # What read queue length does an incoming req see (Count)
system.mem_ctrls1.rdQLenPdf::27                     0                       # What read queue length does an incoming req see (Count)
system.mem_ctrls1.rdQLenPdf::28                     0                       # What read queue length does an incoming req see (Count)
system.mem_ctrls1.rdQLenPdf::29                     0                       # What read queue length does an incoming req see (Count)
system.mem_ctrls1.rdQLenPdf::30                     0                       # What read queue length does an incoming req see (Count)
system.mem_ctrls1.rdQLenPdf::31                     0                       # What read queue length does an incoming req see (Count)
system.mem_ctrls1.rdQLenPdf::32                     0                       # What read queue length does an incoming req see (Count)
system.mem_ctrls1.rdQLenPdf::33                     0                       # What read queue length does an incoming req see (Count)
system.mem_ctrls1.rdQLenPdf::34                     0                       # What read queue length does an incoming req see (Count)
system.mem_ctrls1.rdQLenPdf::35                     0                       # What read queue length does an incoming req see (Count)
system.mem_ctrls1.rdQLenPdf::36                     0                       # What read queue length does an incoming req see (Count)
system.mem_ctrls1.rdQLenPdf::37                     0                       # What read queue length does an incoming req see (Count)
system.mem_ctrls1.rdQLenPdf::38                     0                       # What read queue length does an incoming req see (Count)
system.mem_ctrls1.rdQLenPdf::39                     0                       # What read queue length does an incoming req see (Count)
system.mem_ctrls1.rdQLenPdf::40                     0                       # What read queue length does an incoming req see (Count)
system.mem_ctrls1.rdQLenPdf::41                     0                       # What read queue length does an incoming req see (Count)
system.mem_ctrls1.rdQLenPdf::42                     0                       # What read queue length does an incoming req see (Count)
system.mem_ctrls1.rdQLenPdf::43                     0                       # What read queue length does an incoming req see (Count)
system.mem_ctrls1.rdQLenPdf::44                     0                       # What read queue length does an incoming req see (Count)
system.mem_ctrls1.rdQLenPdf::45                     0                       # What read queue length does an incoming req see (Count)
system.mem_ctrls1.rdQLenPdf::46                     0                       # What read queue length does an incoming req see (Count)
system.mem_ctrls1.rdQLenPdf::47                     0                       # What read queue length does an incoming req see (Count)
system.mem_ctrls1.rdQLenPdf::48                     0                       # What read queue length does an incoming req see (Count)
system.mem_ctrls1.rdQLenPdf::49                     0                       # What read queue length does an incoming req see (Count)
system.mem_ctrls1.rdQLenPdf::50                     0                       # What read queue length does an incoming req see (Count)
system.mem_ctrls1.rdQLenPdf::51                     0                       # What read queue length does an incoming req see (Count)
system.mem_ctrls1.rdQLenPdf::52                     0                       # What read queue length does an incoming req see (Count)
system.mem_ctrls1.rdQLenPdf::53                     0                       # What read queue length does an incoming req see (Count)
system.mem_ctrls1.rdQLenPdf::54                     0                       # What read queue length does an incoming req see (Count)
system.mem_ctrls1.rdQLenPdf::55                     0                       # What read queue length does an incoming req see (Count)
system.mem_ctrls1.rdQLenPdf::56                     0                       # What read queue length does an incoming req see (Count)
system.mem_ctrls1.rdQLenPdf::57                     0                       # What read queue length does an incoming req see (Count)
system.mem_ctrls1.rdQLenPdf::58                     0                       # What read queue length does an incoming req see (Count)
system.mem_ctrls1.rdQLenPdf::59                     0                       # What read queue length does an incoming req see (Count)
system.mem_ctrls1.rdQLenPdf::60                     0                       # What read queue length does an incoming req see (Count)
system.mem_ctrls1.rdQLenPdf::61                     0                       # What read queue length does an incoming req see (Count)
system.mem_ctrls1.rdQLenPdf::62                     0                       # What read queue length does an incoming req see (Count)
system.mem_ctrls1.rdQLenPdf::63                     0                       # What read queue length does an incoming req see (Count)
system.mem_ctrls1.wrQLenPdf::0                      1                       # What write queue length does an incoming req see (Count)
system.mem_ctrls1.wrQLenPdf::1                      1                       # What write queue length does an incoming req see (Count)
system.mem_ctrls1.wrQLenPdf::2                      1                       # What write queue length does an incoming req see (Count)
system.mem_ctrls1.wrQLenPdf::3                      1                       # What write queue length does an incoming req see (Count)
system.mem_ctrls1.wrQLenPdf::4                      1                       # What write queue length does an incoming req see (Count)
system.mem_ctrls1.wrQLenPdf::5                      1                       # What write queue length does an incoming req see (Count)
system.mem_ctrls1.wrQLenPdf::6                      1                       # What write queue length does an incoming req see (Count)
system.mem_ctrls1.wrQLenPdf::7                      1                       # What write queue length does an incoming req see (Count)
system.mem_ctrls1.wrQLenPdf::8                      1                       # What write queue length does an incoming req see (Count)
system.mem_ctrls1.wrQLenPdf::9                      1                       # What write queue length does an incoming req see (Count)
system.mem_ctrls1.wrQLenPdf::10                     1                       # What write queue length does an incoming req see (Count)
system.mem_ctrls1.wrQLenPdf::11                     1                       # What write queue length does an incoming req see (Count)
system.mem_ctrls1.wrQLenPdf::12                     1                       # What write queue length does an incoming req see (Count)
system.mem_ctrls1.wrQLenPdf::13                     1                       # What write queue length does an incoming req see (Count)
system.mem_ctrls1.wrQLenPdf::14                     1                       # What write queue length does an incoming req see (Count)
system.mem_ctrls1.wrQLenPdf::15                 28226                       # What write queue length does an incoming req see (Count)
system.mem_ctrls1.wrQLenPdf::16                 28227                       # What write queue length does an incoming req see (Count)
system.mem_ctrls1.wrQLenPdf::17                 28227                       # What write queue length does an incoming req see (Count)
system.mem_ctrls1.wrQLenPdf::18                 28227                       # What write queue length does an incoming req see (Count)
system.mem_ctrls1.wrQLenPdf::19                 28227                       # What write queue length does an incoming req see (Count)
system.mem_ctrls1.wrQLenPdf::20                 28227                       # What write queue length does an incoming req see (Count)
system.mem_ctrls1.wrQLenPdf::21                 28227                       # What write queue length does an incoming req see (Count)
system.mem_ctrls1.wrQLenPdf::22                 28227                       # What write queue length does an incoming req see (Count)
system.mem_ctrls1.wrQLenPdf::23                 28227                       # What write queue length does an incoming req see (Count)
system.mem_ctrls1.wrQLenPdf::24                 28227                       # What write queue length does an incoming req see (Count)
system.mem_ctrls1.wrQLenPdf::25                 28227                       # What write queue length does an incoming req see (Count)
system.mem_ctrls1.wrQLenPdf::26                 28227                       # What write queue length does an incoming req see (Count)
system.mem_ctrls1.wrQLenPdf::27                 28227                       # What write queue length does an incoming req see (Count)
system.mem_ctrls1.wrQLenPdf::28                 28227                       # What write queue length does an incoming req see (Count)
system.mem_ctrls1.wrQLenPdf::29                 28227                       # What write queue length does an incoming req see (Count)
system.mem_ctrls1.wrQLenPdf::30                 28227                       # What write queue length does an incoming req see (Count)
system.mem_ctrls1.wrQLenPdf::31                 28227                       # What write queue length does an incoming req see (Count)
system.mem_ctrls1.wrQLenPdf::32                 28227                       # What write queue length does an incoming req see (Count)
system.mem_ctrls1.wrQLenPdf::33                     0                       # What write queue length does an incoming req see (Count)
system.mem_ctrls1.wrQLenPdf::34                     0                       # What write queue length does an incoming req see (Count)
system.mem_ctrls1.wrQLenPdf::35                     0                       # What write queue length does an incoming req see (Count)
system.mem_ctrls1.wrQLenPdf::36                     0                       # What write queue length does an incoming req see (Count)
system.mem_ctrls1.wrQLenPdf::37                     0                       # What write queue length does an incoming req see (Count)
system.mem_ctrls1.wrQLenPdf::38                     0                       # What write queue length does an incoming req see (Count)
system.mem_ctrls1.wrQLenPdf::39                     0                       # What write queue length does an incoming req see (Count)
system.mem_ctrls1.wrQLenPdf::40                     0                       # What write queue length does an incoming req see (Count)
system.mem_ctrls1.wrQLenPdf::41                     0                       # What write queue length does an incoming req see (Count)
system.mem_ctrls1.wrQLenPdf::42                     0                       # What write queue length does an incoming req see (Count)
system.mem_ctrls1.wrQLenPdf::43                     0                       # What write queue length does an incoming req see (Count)
system.mem_ctrls1.wrQLenPdf::44                     0                       # What write queue length does an incoming req see (Count)
system.mem_ctrls1.wrQLenPdf::45                     0                       # What write queue length does an incoming req see (Count)
system.mem_ctrls1.wrQLenPdf::46                     0                       # What write queue length does an incoming req see (Count)
system.mem_ctrls1.wrQLenPdf::47                     0                       # What write queue length does an incoming req see (Count)
system.mem_ctrls1.wrQLenPdf::48                     0                       # What write queue length does an incoming req see (Count)
system.mem_ctrls1.wrQLenPdf::49                     0                       # What write queue length does an incoming req see (Count)
system.mem_ctrls1.wrQLenPdf::50                     0                       # What write queue length does an incoming req see (Count)
system.mem_ctrls1.wrQLenPdf::51                     0                       # What write queue length does an incoming req see (Count)
system.mem_ctrls1.wrQLenPdf::52                     0                       # What write queue length does an incoming req see (Count)
system.mem_ctrls1.wrQLenPdf::53                     0                       # What write queue length does an incoming req see (Count)
system.mem_ctrls1.wrQLenPdf::54                     0                       # What write queue length does an incoming req see (Count)
system.mem_ctrls1.wrQLenPdf::55                     0                       # What write queue length does an incoming req see (Count)
system.mem_ctrls1.wrQLenPdf::56                     0                       # What write queue length does an incoming req see (Count)
system.mem_ctrls1.wrQLenPdf::57                     0                       # What write queue length does an incoming req see (Count)
system.mem_ctrls1.wrQLenPdf::58                     0                       # What write queue length does an incoming req see (Count)
system.mem_ctrls1.wrQLenPdf::59                     0                       # What write queue length does an incoming req see (Count)
system.mem_ctrls1.wrQLenPdf::60                     0                       # What write queue length does an incoming req see (Count)
system.mem_ctrls1.wrQLenPdf::61                     0                       # What write queue length does an incoming req see (Count)
system.mem_ctrls1.wrQLenPdf::62                     0                       # What write queue length does an incoming req see (Count)
system.mem_ctrls1.wrQLenPdf::63                     0                       # What write queue length does an incoming req see (Count)
system.mem_ctrls1.rdPerTurnAround::samples        28227                       # Reads before turning the bus around for writes (Count)
system.mem_ctrls1.rdPerTurnAround::mean    877.639813                       # Reads before turning the bus around for writes (Count)
system.mem_ctrls1.rdPerTurnAround::stdev  8356.876050                       # Reads before turning the bus around for writes (Count)
system.mem_ctrls1.rdPerTurnAround::0-32767        28226    100.00%    100.00% # Reads before turning the bus around for writes (Count)
system.mem_ctrls1.rdPerTurnAround::1.37626e+06-1.40902e+06            1      0.00%    100.00% # Reads before turning the bus around for writes (Count)
system.mem_ctrls1.rdPerTurnAround::total        28227                       # Reads before turning the bus around for writes (Count)
system.mem_ctrls1.wrPerTurnAround::samples        28227                       # Writes before turning the bus around for reads (Count)
system.mem_ctrls1.wrPerTurnAround::mean     17.999894                       # Writes before turning the bus around for reads (Count)
system.mem_ctrls1.wrPerTurnAround::gmean    17.999888                       # Writes before turning the bus around for reads (Count)
system.mem_ctrls1.wrPerTurnAround::stdev     0.013309                       # Writes before turning the bus around for reads (Count)
system.mem_ctrls1.wrPerTurnAround::16               1      0.00%      0.00% # Writes before turning the bus around for reads (Count)
system.mem_ctrls1.wrPerTurnAround::17               1      0.00%      0.01% # Writes before turning the bus around for reads (Count)
system.mem_ctrls1.wrPerTurnAround::18           28225     99.99%    100.00% # Writes before turning the bus around for reads (Count)
[...]
system.mem_ctrls7.dram.perBankWrBursts::4        31739                       # Per bank write bursts (Count)
system.mem_ctrls7.dram.perBankWrBursts::5        31743                       # Per bank write bursts (Count)
system.mem_ctrls7.dram.perBankWrBursts::6        31750                       # Per bank write bursts (Count)
system.mem_ctrls7.dram.perBankWrBursts::7        31737                       # Per bank write bursts (Count)
system.mem_ctrls7.dram.perBankWrBursts::8        31740                       # Per bank write bursts (Count)
system.mem_ctrls7.dram.perBankWrBursts::9        31733                       # Per bank write bursts (Count)
system.mem_ctrls7.dram.perBankWrBursts::10        31742                       # Per bank write bursts (Count)
system.mem_ctrls7.dram.perBankWrBursts::11        31757                       # Per bank write bursts (Count)
system.mem_ctrls7.dram.perBankWrBursts::12        31726                       # Per bank write bursts (Count)
system.mem_ctrls7.dram.perBankWrBursts::13        31734                       # Per bank write bursts (Count)
system.mem_ctrls7.dram.perBankWrBursts::14        31738                       # Per bank write bursts (Count)
system.mem_ctrls7.dram.perBankWrBursts::15        31716                       # Per bank write bursts (Count)
system.mem_ctrls7.dram.totQLat            42091228000                       # Total ticks spent queuing (Tick)
system.mem_ctrls7.dram.totBusLat           5577516000                       # Total ticks spent in databus transfers (Tick)
system.mem_ctrls7.dram.totMemAccLat       97866388000                       # Total ticks spent from burst creation until serviced by the DRAM (Tick)
system.mem_ctrls7.dram.avgQLat               15093.18                       # Average queueing delay per DRAM burst ((Tick/Count))
system.mem_ctrls7.dram.avgBusLat              2000.00                       # Average bus latency per DRAM burst ((Tick/Count))
system.mem_ctrls7.dram.avgMemAccLat          35093.18                       # Average memory access latency per DRAM burst ((Tick/Count))
system.mem_ctrls7.dram.readRowHits               1297                       # Number of row buffer hits during reads (Count)
system.mem_ctrls7.dram.writeRowHits            437493                       # Number of row buffer hits during writes (Count)
system.mem_ctrls7.dram.readRowHitRate            0.05                       # Row buffer hit rate for reads (Ratio)
system.mem_ctrls7.dram.writeRowHitRate          86.09                       # Row buffer hit rate for writes (Ratio)
system.mem_ctrls7.dram.bytesPerActivate::samples      2858126                       # Bytes accessed per row activation (Byte)
system.mem_ctrls7.dram.bytesPerActivate::mean    36.912758                       # Bytes accessed per row activation (Byte)
system.mem_ctrls7.dram.bytesPerActivate::gmean    33.494116                       # Bytes accessed per row activation (Byte)
system.mem_ctrls7.dram.bytesPerActivate::stdev    33.810376                       # Bytes accessed per row activation (Byte)
system.mem_ctrls7.dram.bytesPerActivate::0-63      2791860     97.68%     97.68% # Bytes accessed per row activation (Byte)
system.mem_ctrls7.dram.bytesPerActivate::64-127         5025      0.18%     97.86% # Bytes accessed per row activation (Byte)
system.mem_ctrls7.dram.bytesPerActivate::128-191        10587      0.37%     98.23% # Bytes accessed per row activation (Byte)
system.mem_ctrls7.dram.bytesPerActivate::192-255         5910      0.21%     98.43% # Bytes accessed per row activation (Byte)
system.mem_ctrls7.dram.bytesPerActivate::256-319        29415      1.03%     99.46% # Bytes accessed per row activation (Byte)
system.mem_ctrls7.dram.bytesPerActivate::320-383        14247      0.50%     99.96% # Bytes accessed per row activation (Byte)
system.mem_ctrls7.dram.bytesPerActivate::384-447         1076      0.04%    100.00% # Bytes accessed per row activation (Byte)
system.mem_ctrls7.dram.bytesPerActivate::448-511            4      0.00%    100.00% # Bytes accessed per row activation (Byte)
system.mem_ctrls7.dram.bytesPerActivate::512-575            2      0.00%    100.00% # Bytes accessed per row activation (Byte)
system.mem_ctrls7.dram.bytesPerActivate::total      2858126                       # Bytes accessed per row activation (Byte)
system.mem_ctrls7.dram.bytesRead             89240256                       # Total bytes read (Byte)
system.mem_ctrls7.dram.bytesWritten          16261056                       # Total bytes written (Byte)
system.mem_ctrls7.dram.avgRdBW               7.518429                       # Average DRAM read bandwidth in MiBytes/s ((Byte/Second))
system.mem_ctrls7.dram.avgWrBW               1.369983                       # Average DRAM write bandwidth in MiBytes/s ((Byte/Second))
system.mem_ctrls7.dram.peakBW                16000.00                       # Theoretical peak bandwidth in MiByte/s ((Byte/Second))
system.mem_ctrls7.dram.busUtil                   0.06                       # Data bus utilization in percentage (Ratio)
system.mem_ctrls7.dram.busUtilRead               0.05                       # Data bus utilization in percentage for reads (Ratio)
system.mem_ctrls7.dram.busUtilWrite              0.01                       # Data bus utilization in percentage for writes (Ratio)
system.mem_ctrls7.dram.pageHitRate              13.31                       # Row buffer hit rate, read and write combined (Ratio)
system.mem_ctrls7.dram.power_state.pwrStateResidencyTicks::UNDEFINED 11869534277000                       # Cumulative time (in ticks) in various power states (Tick)
system.mem_ctrls7.dram.rank0.actEnergy              0                       # Energy for activate commands per rank (pJ) (Joule)
system.mem_ctrls7.dram.rank0.preEnergy              0                       # Energy for precharge commands per rank (pJ) (Joule)
system.mem_ctrls7.dram.rank0.readEnergy             0                       # Energy for read commands per rank (pJ) (Joule)
system.mem_ctrls7.dram.rank0.writeEnergy            0                       # Energy for write commands per rank (pJ) (Joule)
system.mem_ctrls7.dram.rank0.refreshEnergy            0                       # Energy for refresh commands per rank (pJ) (Joule)
system.mem_ctrls7.dram.rank0.actBackEnergy            0                       # Energy for active background per rank (pJ) (Joule)
system.mem_ctrls7.dram.rank0.preBackEnergy            0                       # Energy for precharge background per rank (pJ) (Joule)
system.mem_ctrls7.dram.rank0.actPowerDownEnergy            0                       # Energy for active power-down per rank (pJ) (Joule)
system.mem_ctrls7.dram.rank0.prePowerDownEnergy            0                       # Energy for precharge power-down per rank (pJ) (Joule)
system.mem_ctrls7.dram.rank0.selfRefreshEnergy            0                       # Energy for self refresh per rank (pJ) (Joule)
system.mem_ctrls7.dram.rank0.totalEnergy            0                       # Total energy per rank (pJ) (Joule)
system.mem_ctrls7.dram.rank0.averagePower            0                       # Core power per rank (mW) (Watt)
system.mem_ctrls7.dram.rank0.totalIdleTime            0                       # Total Idle time Per DRAM Rank (Tick)
system.mem_ctrls7.dram.rank0.pwrStateTime::IDLE 11035967553000                       # Time in different power states (Tick)
system.mem_ctrls7.dram.rank0.pwrStateTime::REF 671975480000                       # Time in different power states (Tick)
system.mem_ctrls7.dram.rank0.pwrStateTime::SREF            0                       # Time in different power states (Tick)
system.mem_ctrls7.dram.rank0.pwrStateTime::PRE_PDN            0                       # Time in different power states (Tick)
system.mem_ctrls7.dram.rank0.pwrStateTime::ACT 161591244000                       # Time in different power states (Tick)
system.mem_ctrls7.dram.rank0.pwrStateTime::ACT_PDN            0                       # Time in different power states (Tick)
system.mem_ctrls7.power_state.pwrStateResidencyTicks::UNDEFINED 11869534277000                       # Cumulative time (in ticks) in various power states (Tick)
system.membus.transDist::ReadReq            176364109                       # Transaction distribution (Count)
system.membus.transDist::ReadResp           176364109                       # Transaction distribution (Count)
system.membus.transDist::WriteReq            16020615                       # Transaction distribution (Count)
system.membus.transDist::WriteResp           16020615                       # Transaction distribution (Count)
system.membus.pktCount_system.cpu.icache_port::system.mem_ctrls0.port        58980                       # Packet count per connected requestor and responder (Count)
system.membus.pktCount_system.cpu.icache_port::system.mem_ctrls1.port     42036210                       # Packet count per connected requestor and responder (Count)
system.membus.pktCount_system.cpu.icache_port::system.mem_ctrls2.port     60029886                       # Packet count per connected requestor and responder (Count)
system.membus.pktCount_system.cpu.icache_port::system.mem_ctrls3.port     74060530                       # Packet count per connected requestor and responder (Count)
system.membus.pktCount_system.cpu.icache_port::system.mem_ctrls4.port     36123806                       # Packet count per connected requestor and responder (Count)
system.membus.pktCount_system.cpu.icache_port::system.mem_ctrls5.port     68105918                       # Packet count per connected requestor and responder (Count)
system.membus.pktCount_system.cpu.icache_port::system.mem_ctrls6.port     18138124                       # Packet count per connected requestor and responder (Count)
system.membus.pktCount_system.cpu.icache_port::system.mem_ctrls7.port        66486                       # Packet count per connected requestor and responder (Count)
system.membus.pktCount_system.cpu.icache_port::total    298619940                       # Packet count per connected requestor and responder (Count)
system.membus.pktCount_system.cpu.dcache_port::system.mem_ctrls0.port      9528918                       # Packet count per connected requestor and responder (Count)
system.membus.pktCount_system.cpu.dcache_port::system.mem_ctrls1.port     11516568                       # Packet count per connected requestor and responder (Count)
system.membus.pktCount_system.cpu.dcache_port::system.mem_ctrls2.port     11518728                       # Packet count per connected requestor and responder (Count)
system.membus.pktCount_system.cpu.dcache_port::system.mem_ctrls3.port     15519126                       # Packet count per connected requestor and responder (Count)
system.membus.pktCount_system.cpu.dcache_port::system.mem_ctrls4.port      9518172                       # Packet count per connected requestor and responder (Count)
system.membus.pktCount_system.cpu.dcache_port::system.mem_ctrls5.port      9513408                       # Packet count per connected requestor and responder (Count)
system.membus.pktCount_system.cpu.dcache_port::system.mem_ctrls6.port      9515454                       # Packet count per connected requestor and responder (Count)
system.membus.pktCount_system.cpu.dcache_port::system.mem_ctrls7.port      9519134                       # Packet count per connected requestor and responder (Count)
system.membus.pktCount_system.cpu.dcache_port::total     86149508                       # Packet count per connected requestor and responder (Count)
system.membus.pktCount::total               384769448                       # Packet count per connected requestor and responder (Count)
system.membus.pktSize_system.cpu.icache_port::system.mem_ctrls0.port       235920                       # Cumulative packet size per connected requestor and responder (Byte)
system.membus.pktSize_system.cpu.icache_port::system.mem_ctrls1.port    168144840                       # Cumulative packet size per connected requestor and responder (Byte)
system.membus.pktSize_system.cpu.icache_port::system.mem_ctrls2.port    240119544                       # Cumulative packet size per connected requestor and responder (Byte)
system.membus.pktSize_system.cpu.icache_port::system.mem_ctrls3.port    296242120                       # Cumulative packet size per connected requestor and responder (Byte)
system.membus.pktSize_system.cpu.icache_port::system.mem_ctrls4.port    144495224                       # Cumulative packet size per connected requestor and responder (Byte)
system.membus.pktSize_system.cpu.icache_port::system.mem_ctrls5.port    272423672                       # Cumulative packet size per connected requestor and responder (Byte)
system.membus.pktSize_system.cpu.icache_port::system.mem_ctrls6.port     72552496                       # Cumulative packet size per connected requestor and responder (Byte)
system.membus.pktSize_system.cpu.icache_port::system.mem_ctrls7.port       265944                       # Cumulative packet size per connected requestor and responder (Byte)
system.membus.pktSize_system.cpu.icache_port::total   1194479760                       # Cumulative packet size per connected requestor and responder (Byte)
system.membus.pktSize_system.cpu.dcache_port::system.mem_ctrls0.port     38095278                       # Cumulative packet size per connected requestor and responder (Byte)
system.membus.pktSize_system.cpu.dcache_port::system.mem_ctrls1.port     46050898                       # Cumulative packet size per connected requestor and responder (Byte)
system.membus.pktSize_system.cpu.dcache_port::system.mem_ctrls2.port     46053430                       # Cumulative packet size per connected requestor and responder (Byte)
system.membus.pktSize_system.cpu.dcache_port::system.mem_ctrls3.port     62059303                       # Cumulative packet size per connected requestor and responder (Byte)
system.membus.pktSize_system.cpu.dcache_port::system.mem_ctrls4.port     38054078                       # Cumulative packet size per connected requestor and responder (Byte)
system.membus.pktSize_system.cpu.dcache_port::system.mem_ctrls5.port     38036659                       # Cumulative packet size per connected requestor and responder (Byte)
system.membus.pktSize_system.cpu.dcache_port::system.mem_ctrls6.port     38045265                       # Cumulative packet size per connected requestor and responder (Byte)
system.membus.pktSize_system.cpu.dcache_port::system.mem_ctrls7.port     38061382                       # Cumulative packet size per connected requestor and responder (Byte)
system.membus.pktSize_system.cpu.dcache_port::total    344456293                       # Cumulative packet size per connected requestor and responder (Byte)
system.membus.pktSize::total               1538936053                       # Cumulative packet size per connected requestor and responder (Byte)
system.membus.snoops                                0                       # Total snoops (Count)
system.membus.snoopTraffic                          0                       # Total snoop traffic (Byte)
system.membus.snoopFanout::samples          192384724                       # Request fanout histogram (Count)
system.membus.snoopFanout::mean                     0                       # Request fanout histogram (Count)
system.membus.snoopFanout::stdev                    0                       # Request fanout histogram (Count)
system.membus.snoopFanout::underflows               0      0.00%      0.00% # Request fanout histogram (Count)
system.membus.snoopFanout::0                192384724    100.00%    100.00% # Request fanout histogram (Count)
system.membus.snoopFanout::1                        0      0.00%    100.00% # Request fanout histogram (Count)
system.membus.snoopFanout::overflows                0      0.00%    100.00% # Request fanout histogram (Count)
system.membus.snoopFanout::min_value                0                       # Request fanout histogram (Count)
system.membus.snoopFanout::max_value                0                       # Request fanout histogram (Count)
system.membus.snoopFanout::total            192384724                       # Request fanout histogram (Count)
system.membus.power_state.pwrStateResidencyTicks::UNDEFINED 11869534277000                       # Cumulative time (in ticks) in various power states (Tick)
system.membus.reqLayer2.occupancy          6797902000                       # Layer occupancy (ticks) (Tick)
system.membus.reqLayer2.utilization               0.0                       # Layer utilization (Ratio)
system.membus.reqLayer3.occupancy         28778768000                       # Layer occupancy (ticks) (Tick)
system.membus.reqLayer3.utilization               0.0                       # Layer utilization (Ratio)
system.membus.reqLayer4.occupancy         37776999000                       # Layer occupancy (ticks) (Tick)
system.membus.reqLayer4.utilization               0.0                       # Layer utilization (Ratio)
system.membus.reqLayer5.occupancy         46792845000                       # Layer occupancy (ticks) (Tick)
system.membus.reqLayer5.utilization               0.0                       # Layer utilization (Ratio)
system.membus.reqLayer6.occupancy         24823028000                       # Layer occupancy (ticks) (Tick)
system.membus.reqLayer6.utilization               0.0                       # Layer utilization (Ratio)
system.membus.reqLayer7.occupancy         40811133000                       # Layer occupancy (ticks) (Tick)
system.membus.reqLayer7.utilization               0.0                       # Layer utilization (Ratio)
system.membus.reqLayer8.occupancy         15828848000                       # Layer occupancy (ticks) (Tick)
system.membus.reqLayer8.utilization               0.0                       # Layer utilization (Ratio)
system.membus.reqLayer9.occupancy          6795816000                       # Layer occupancy (ticks) (Tick)
system.membus.reqLayer9.utilization               0.0                       # Layer utilization (Ratio)
system.membus.respLayer1.occupancy       298619940000                       # Layer occupancy (ticks) (Tick)
system.membus.respLayer1.utilization              0.0                       # Layer utilization (Ratio)
system.membus.respLayer2.occupancy        70128893000                       # Layer occupancy (ticks) (Tick)
system.membus.respLayer2.utilization              0.0                       # Layer utilization (Ratio)
system.membus.snoop_filter.totRequests              0                       # Total number of requests made to the snoop filter. (Count)
system.membus.snoop_filter.hitSingleRequests            0                       # Number of requests hitting in the snoop filter with a single holder of the requested data. (Count)
system.membus.snoop_filter.hitMultiRequests            0                       # Number of requests hitting in the snoop filter with multiple (>1) holders of the requested data. (Count)
system.membus.snoop_filter.totSnoops                0                       # Total number of snoops made to the snoop filter. (Count)
system.membus.snoop_filter.hitSingleSnoops            0                       # Number of snoops hitting in the snoop filter with a single holder of the requested data. (Count)
system.membus.snoop_filter.hitMultiSnoops            0                       # Number of snoops hitting in the snoop filter with multiple (>1) holders of the requested data. (Count)
system.voltage_domain.voltage                       1                       # Voltage in Volts (Volt)
system.workload.inst.arm                            0                       # number of arm instructions executed (Count)
system.workload.inst.quiesce                        0                       # number of quiesce instructions executed (Count)

---------- End Simulation Statistics   ----------
