
---------- Begin Simulation Statistics ----------
simSeconds                                   0.029055                       # Number of seconds simulated (Second)
simTicks                                  29055348500                       # Number of ticks simulated (Tick)
finalTick                                 29055348500                       # Number of ticks from beginning of simulation (restored from checkpoints and never reset) (Tick)
simFreq                                  1000000000000                       # The number of ticks per simulated second ((Tick/Second))
hostSeconds                                   1283.83                       # Real time elapsed on the host (Second)
hostTickRate                                 22631724                       # The number of ticks simulated per host second (ticks/s) ((Tick/Second))
hostMemory                                    1348820                       # Number of bytes of host memory used (Byte)
simInsts                                    176332537                       # Number of instructions simulated (Count)
simOps                                      309750195                       # Number of ops (including micro ops) simulated (Count)
hostInstRate                                   137349                       # Simulator instruction rate (inst/s) ((Count/Second))
hostOpRate                                     241270                       # Simulator op (including micro ops) rate (op/s) ((Count/Second))
system.clk_domain.clock                          1000                       # Clock period in ticks (Tick)
system.cpu0.numCycles                       116221395                       # Number of cpu cycles simulated (Cycle)
system.cpu0.numWorkItemsStarted                     0                       # Number of work items this cpu started (Count)
system.cpu0.numWorkItemsCompleted                   0                       # Number of work items this cpu completed (Count)
system.cpu0.instsAdded                       46295920                       # Number of instructions added to the IQ (excludes non-spec) (Count)
system.cpu0.nonSpecInstsAdded                    1408                       # Number of non-speculative instructions added to the IQ (Count)
system.cpu0.instsIssued                      46276937                       # Number of instructions issued (Count)
system.cpu0.squashedInstsIssued                  2013                       # Number of squashed instructions issued (Count)
system.cpu0.squashedInstsExamined              574748                       # Number of squashed instructions iterated over during squash; mainly for profiling (Count)
system.cpu0.squashedOperandsExamined           770352                       # Number of squashed operands that are examined and possibly removed from graph (Count)
system.cpu0.squashedNonSpecRemoved                292                       # Number of squashed non-spec instructions that were removed (Count)
system.cpu0.numIssuedDist::samples          115822416                       # Number of insts issued each cycle (Count)
system.cpu0.numIssuedDist::mean              0.399551                       # Number of insts issued each cycle (Count)
system.cpu0.numIssuedDist::stdev             1.216994                       # Number of insts issued each cycle (Count)
system.cpu0.numIssuedDist::underflows               0      0.00%      0.00% # Number of insts issued each cycle (Count)
system.cpu0.numIssuedDist::0                 99812301     86.18%     86.18% # Number of insts issued each cycle (Count)
system.cpu0.numIssuedDist::1                  5082686      4.39%     90.57% # Number of insts issued each cycle (Count)
system.cpu0.numIssuedDist::2                  3377965      2.92%     93.48% # Number of insts issued each cycle (Count)
system.cpu0.numIssuedDist::3                  1896048      1.64%     95.12% # Number of insts issued each cycle (Count)
system.cpu0.numIssuedDist::4                  2613271      2.26%     97.38% # Number of insts issued each cycle (Count)
system.cpu0.numIssuedDist::5                  1047265      0.90%     98.28% # Number of insts issued each cycle (Count)
system.cpu0.numIssuedDist::6                  1034186      0.89%     99.17% # Number of insts issued each cycle (Count)
system.cpu0.numIssuedDist::7                   813900      0.70%     99.87% # Number of insts issued each cycle (Count)
system.cpu0.numIssuedDist::8                   144794      0.13%    100.00% # Number of insts issued each cycle (Count)
system.cpu0.numIssuedDist::overflows                0      0.00%    100.00% # Number of insts issued each cycle (Count)
system.cpu0.numIssuedDist::min_value                0                       # Number of insts issued each cycle (Count)
system.cpu0.numIssuedDist::max_value                8                       # Number of insts issued each cycle (Count)
system.cpu0.numIssuedDist::total            115822416                       # Number of insts issued each cycle (Count)
system.cpu0.statFuBusy::No_OpClass                  0      0.00%      0.00% # attempts to use FU when none available (Count)
system.cpu0.statFuBusy::IntAlu                  13435      1.89%      1.89% # attempts to use FU when none available (Count)
system.cpu0.statFuBusy::IntMult                     0      0.00%      1.89% # attempts to use FU when none available (Count)
system.cpu0.statFuBusy::IntDiv                      0      0.00%      1.89% # attempts to use FU when none available (Count)
system.cpu0.statFuBusy::FloatAdd                    0      0.00%      1.89% # attempts to use FU when none available (Count)
system.cpu0.statFuBusy::FloatCmp                    0      0.00%      1.89% # attempts to use FU when none available (Count)
system.cpu0.statFuBusy::FloatCvt                    0      0.00%      1.89% # attempts to use FU when none available (Count)
system.cpu0.statFuBusy::FloatMult                   0      0.00%      1.89% # attempts to use FU when none available (Count)
system.cpu0.statFuBusy::FloatMultAcc                0      0.00%      1.89% # attempts to use FU when none available (Count)
system.cpu0.statFuBusy::FloatDiv                    0      0.00%      1.89% # attempts to use FU when none available (Count)
system.cpu0.statFuBusy::FloatMisc                   0      0.00%      1.89% # attempts to use FU when none available (Count)
system.cpu0.statFuBusy::FloatSqrt                   0      0.00%      1.89% # attempts to use FU when none available (Count)
system.cpu0.statFuBusy::SimdAdd                     2      0.00%      1.89% # attempts to use FU when none available (Count)
system.cpu0.statFuBusy::SimdAddAcc                  0      0.00%      1.89% # attempts to use FU when none available (Count)
system.cpu0.statFuBusy::SimdAlu                   117      0.02%      1.91% # attempts to use FU when none available (Count)
system.cpu0.statFuBusy::SimdCmp                     0      0.00%      1.91% # attempts to use FU when none available (Count)
system.cpu0.statFuBusy::SimdCvt                   105      0.01%      1.92% # attempts to use FU when none available (Count)
system.cpu0.statFuBusy::SimdMisc                   64      0.01%      1.93% # attempts to use FU when none available (Count)
system.cpu0.statFuBusy::SimdMult                    0      0.00%      1.93% # attempts to use FU when none available (Count)
system.cpu0.statFuBusy::SimdMultAcc                 0      0.00%      1.93% # attempts to use FU when none available (Count)
system.cpu0.statFuBusy::SimdShift                  20      0.00%      1.93% # attempts to use FU when none available (Count)
system.cpu0.statFuBusy::SimdShiftAcc                0      0.00%      1.93% # attempts to use FU when none available (Count)
system.cpu0.statFuBusy::SimdDiv                     0      0.00%      1.93% # attempts to use FU when none available (Count)
system.cpu0.statFuBusy::SimdSqrt                    0      0.00%      1.93% # attempts to use FU when none available (Count)
system.cpu0.statFuBusy::SimdFloatAdd           655397     92.12%     94.05% # attempts to use FU when none available (Count)
system.cpu0.statFuBusy::SimdFloatAlu                0      0.00%     94.05% # attempts to use FU when none available (Count)
system.cpu0.statFuBusy::SimdFloatCmp                0      0.00%     94.05% # attempts to use FU when none available (Count)
system.cpu0.statFuBusy::SimdFloatCvt                0      0.00%     94.05% # attempts to use FU when none available (Count)
system.cpu0.statFuBusy::SimdFloatDiv                0      0.00%     94.05% # attempts to use FU when none available (Count)
system.cpu0.statFuBusy::SimdFloatMisc               0      0.00%     94.05% # attempts to use FU when none available (Count)
system.cpu0.statFuBusy::SimdFloatMult               0      0.00%     94.05% # attempts to use FU when none available (Count)
system.cpu0.statFuBusy::SimdFloatMultAcc            0      0.00%     94.05% # attempts to use FU when none available (Count)
system.cpu0.statFuBusy::SimdFloatSqrt               0      0.00%     94.05% # attempts to use FU when none available (Count)
system.cpu0.statFuBusy::SimdReduceAdd               0      0.00%     94.05% # attempts to use FU when none available (Count)
system.cpu0.statFuBusy::SimdReduceAlu               0      0.00%     94.05% # attempts to use FU when none available (Count)
system.cpu0.statFuBusy::SimdReduceCmp               0      0.00%     94.05% # attempts to use FU when none available (Count)
system.cpu0.statFuBusy::SimdFloatReduceAdd            0      0.00%     94.05% # attempts to use FU when none available (Count)
system.cpu0.statFuBusy::SimdFloatReduceCmp            0      0.00%     94.05% # attempts to use FU when none available (Count)
system.cpu0.statFuBusy::SimdAes                     0      0.00%     94.05% # attempts to use FU when none available (Count)
system.cpu0.statFuBusy::SimdAesMix                  0      0.00%     94.05% # attempts to use FU when none available (Count)
system.cpu0.statFuBusy::SimdSha1Hash                0      0.00%     94.05% # attempts to use FU when none available (Count)
system.cpu0.statFuBusy::SimdSha1Hash2               0      0.00%     94.05% # attempts to use FU when none available (Count)
system.cpu0.statFuBusy::SimdSha256Hash              0      0.00%     94.05% # attempts to use FU when none available (Count)
system.cpu0.statFuBusy::SimdSha256Hash2             0      0.00%     94.05% # attempts to use FU when none available (Count)
system.cpu0.statFuBusy::SimdShaSigma2               0      0.00%     94.05% # attempts to use FU when none available (Count)
system.cpu0.statFuBusy::SimdShaSigma3               0      0.00%     94.05% # attempts to use FU when none available (Count)
system.cpu0.statFuBusy::SimdPredAlu                 0      0.00%     94.05% # attempts to use FU when none available (Count)
system.cpu0.statFuBusy::MemRead                  2074      0.29%     94.34% # attempts to use FU when none available (Count)
system.cpu0.statFuBusy::MemWrite                 1428      0.20%     94.55% # attempts to use FU when none available (Count)
system.cpu0.statFuBusy::FloatMemRead            12818      1.80%     96.35% # attempts to use FU when none available (Count)
system.cpu0.statFuBusy::FloatMemWrite           25990      3.65%    100.00% # attempts to use FU when none available (Count)
system.cpu0.statFuBusy::IprAccess                   0      0.00%    100.00% # attempts to use FU when none available (Count)
system.cpu0.statFuBusy::InstPrefetch                0      0.00%    100.00% # attempts to use FU when none available (Count)
system.cpu0.statIssuedInstType_0::No_OpClass         6608      0.01%      0.01% # Number of instructions issued per FU type, per thread (Count)
system.cpu0.statIssuedInstType_0::IntAlu     23352671     50.46%     50.48% # Number of instructions issued per FU type, per thread (Count)
system.cpu0.statIssuedInstType_0::IntMult          258      0.00%     50.48% # Number of instructions issued per FU type, per thread (Count)
system.cpu0.statIssuedInstType_0::IntDiv         2969      0.01%     50.48% # Number of instructions issued per FU type, per thread (Count)
system.cpu0.statIssuedInstType_0::FloatAdd      3569059      7.71%     58.20% # Number of instructions issued per FU type, per thread (Count)
system.cpu0.statIssuedInstType_0::FloatCmp            0      0.00%     58.20% # Number of instructions issued per FU type, per thread (Count)
system.cpu0.statIssuedInstType_0::FloatCvt          536      0.00%     58.20% # Number of instructions issued per FU type, per thread (Count)
system.cpu0.statIssuedInstType_0::FloatMult            0      0.00%     58.20% # Number of instructions issued per FU type, per thread (Count)
system.cpu0.statIssuedInstType_0::FloatMultAcc            0      0.00%     58.20% # Number of instructions issued per FU type, per thread (Count)
system.cpu0.statIssuedInstType_0::FloatDiv            0      0.00%     58.20% # Number of instructions issued per FU type, per thread (Count)
system.cpu0.statIssuedInstType_0::FloatMisc            0      0.00%     58.20% # Number of instructions issued per FU type, per thread (Count)
system.cpu0.statIssuedInstType_0::FloatSqrt            0      0.00%     58.20% # Number of instructions issued per FU type, per thread (Count)
system.cpu0.statIssuedInstType_0::SimdAdd         2654      0.01%     58.20% # Number of instructions issued per FU type, per thread (Count)
system.cpu0.statIssuedInstType_0::SimdAddAcc            0      0.00%     58.20% # Number of instructions issued per FU type, per thread (Count)
system.cpu0.statIssuedInstType_0::SimdAlu        26879      0.06%     58.26% # Number of instructions issued per FU type, per thread (Count)
system.cpu0.statIssuedInstType_0::SimdCmp           76      0.00%     58.26% # Number of instructions issued per FU type, per thread (Count)
system.cpu0.statIssuedInstType_0::SimdCvt         6343      0.01%     58.28% # Number of instructions issued per FU type, per thread (Count)
system.cpu0.statIssuedInstType_0::SimdMisc         4365      0.01%     58.28% # Number of instructions issued per FU type, per thread (Count)
system.cpu0.statIssuedInstType_0::SimdMult            0      0.00%     58.28% # Number of instructions issued per FU type, per thread (Count)
system.cpu0.statIssuedInstType_0::SimdMultAcc            0      0.00%     58.28% # Number of instructions issued per FU type, per thread (Count)
system.cpu0.statIssuedInstType_0::SimdShift         1825      0.00%     58.29% # Number of instructions issued per FU type, per thread (Count)
system.cpu0.statIssuedInstType_0::SimdShiftAcc            0      0.00%     58.29% # Number of instructions issued per FU type, per thread (Count)
system.cpu0.statIssuedInstType_0::SimdDiv            0      0.00%     58.29% # Number of instructions issued per FU type, per thread (Count)
system.cpu0.statIssuedInstType_0::SimdSqrt            0      0.00%     58.29% # Number of instructions issued per FU type, per thread (Count)
system.cpu0.statIssuedInstType_0::SimdFloatAdd      6573091     14.20%     72.49% # Number of instructions issued per FU type, per thread (Count)
system.cpu0.statIssuedInstType_0::SimdFloatAlu            0      0.00%     72.49% # Number of instructions issued per FU type, per thread (Count)
system.cpu0.statIssuedInstType_0::SimdFloatCmp           29      0.00%     72.49% # Number of instructions issued per FU type, per thread (Count)
system.cpu0.statIssuedInstType_0::SimdFloatCvt      3015918      6.52%     79.01% # Number of instructions issued per FU type, per thread (Count)
system.cpu0.statIssuedInstType_0::SimdFloatDiv           17      0.00%     79.01% # Number of instructions issued per FU type, per thread (Count)
system.cpu0.statIssuedInstType_0::SimdFloatMisc            0      0.00%     79.01% # Number of instructions issued per FU type, per thread (Count)
system.cpu0.statIssuedInstType_0::SimdFloatMult       505339      1.09%     80.10% # Number of instructions issued per FU type, per thread (Count)
system.cpu0.statIssuedInstType_0::SimdFloatMultAcc            0      0.00%     80.10% # Number of instructions issued per FU type, per thread (Count)
system.cpu0.statIssuedInstType_0::SimdFloatSqrt            0      0.00%     80.10% # Number of instructions issued per FU type, per thread (Count)
system.cpu0.statIssuedInstType_0::SimdReduceAdd            0      0.00%     80.10% # Number of instructions issued per FU type, per thread (Count)
system.cpu0.statIssuedInstType_0::SimdReduceAlu            0      0.00%     80.10% # Number of instructions issued per FU type, per thread (Count)
system.cpu0.statIssuedInstType_0::SimdReduceCmp            0      0.00%     80.10% # Number of instructions issued per FU type, per thread (Count)
system.cpu0.statIssuedInstType_0::SimdFloatReduceAdd            0      0.00%     80.10% # Number of instructions issued per FU type, per thread (Count)
system.cpu0.statIssuedInstType_0::SimdFloatReduceCmp            0      0.00%     80.10% # Number of instructions issued per FU type, per thread (Count)
system.cpu0.statIssuedInstType_0::SimdAes            0      0.00%     80.10% # Number of instructions issued per FU type, per thread (Count)
system.cpu0.statIssuedInstType_0::SimdAesMix            0      0.00%     80.10% # Number of instructions issued per FU type, per thread (Count)
system.cpu0.statIssuedInstType_0::SimdSha1Hash            0      0.00%     80.10% # Number of instructions issued per FU type, per thread (Count)
system.cpu0.statIssuedInstType_0::SimdSha1Hash2            0      0.00%     80.10% # Number of instructions issued per FU type, per thread (Count)
system.cpu0.statIssuedInstType_0::SimdSha256Hash            0      0.00%     80.10% # Number of instructions issued per FU type, per thread (Count)
system.cpu0.statIssuedInstType_0::SimdSha256Hash2            0      0.00%     80.10% # Number of instructions issued per FU type, per thread (Count)
system.cpu0.statIssuedInstType_0::SimdShaSigma2            0      0.00%     80.10% # Number of instructions issued per FU type, per thread (Count)
system.cpu0.statIssuedInstType_0::SimdShaSigma3            0      0.00%     80.10% # Number of instructions issued per FU type, per thread (Count)
system.cpu0.statIssuedInstType_0::SimdPredAlu            0      0.00%     80.10% # Number of instructions issued per FU type, per thread (Count)
system.cpu0.statIssuedInstType_0::MemRead       180063      0.39%     80.49% # Number of instructions issued per FU type, per thread (Count)
system.cpu0.statIssuedInstType_0::MemWrite       129986      0.28%     80.77% # Number of instructions issued per FU type, per thread (Count)
system.cpu0.statIssuedInstType_0::FloatMemRead      7703587     16.65%     97.42% # Number of instructions issued per FU type, per thread (Count)
system.cpu0.statIssuedInstType_0::FloatMemWrite      1194664      2.58%    100.00% # Number of instructions issued per FU type, per thread (Count)
system.cpu0.statIssuedInstType_0::IprAccess            0      0.00%    100.00% # Number of instructions issued per FU type, per thread (Count)
system.cpu0.statIssuedInstType_0::InstPrefetch            0      0.00%    100.00% # Number of instructions issued per FU type, per thread (Count)
system.cpu0.statIssuedInstType_0::total      46276937                       # Number of instructions issued per FU type, per thread (Count)
system.cpu0.issueRate                        0.398179                       # Inst issue rate ((Count/Cycle))
system.cpu0.fuBusy                             711450                       # FU busy when requested (Count)
system.cpu0.fuBusyRate                       0.015374                       # FU busy rate (busy events/executed inst) ((Count/Count))
system.cpu0.intInstQueueReads               161162750                       # Number of integer instruction queue reads (Count)
system.cpu0.intInstQueueWrites               23287515                       # Number of integer instruction queue writes (Count)
system.cpu0.intInstQueueWakeupAccesses       22607275                       # Number of integer instruction queue wakeup accesses (Count)
system.cpu0.fpInstQueueReads                 47927003                       # Number of floating instruction queue reads (Count)
system.cpu0.fpInstQueueWrites                23584837                       # Number of floating instruction queue writes (Count)
system.cpu0.fpInstQueueWakeupAccesses        23511148                       # Number of floating instruction queue wakeup accesses (Count)
system.cpu0.vecInstQueueReads                       0                       # Number of vector instruction queue reads (Count)
system.cpu0.vecInstQueueWrites                      0                       # Number of vector instruction queue writes (Count)
system.cpu0.vecInstQueueWakeupAccesses              0                       # Number of vector instruction queue wakeup accesses (Count)
system.cpu0.intAluAccesses                   22671139                       # Number of integer alu accesses (Count)
system.cpu0.fpAluAccesses                    24310640                       # Number of floating point alu accesses (Count)
system.cpu0.vecAluAccesses                          0                       # Number of vector alu accesses (Count)
system.cpu0.numInsts                         46244984                       # Number of executed instructions (Count)
system.cpu0.numLoadInsts                      7877777                       # Number of load instructions executed (Count)
system.cpu0.numSquashedInsts                    31953                       # Number of squashed instructions skipped in execute (Count)
system.cpu0.numSwp                                  0                       # Number of swp insts executed (Count)
system.cpu0.numNop                                  0                       # Number of nop insts executed (Count)
system.cpu0.numRefs                           9201415                       # Number of memory reference insts executed (Count)
system.cpu0.numBranches                       4692057                       # Number of branches executed (Count)
system.cpu0.numStoreInsts                     1323638                       # Number of stores executed (Count)
system.cpu0.numRate                          0.397904                       # Inst execution rate ((Count/Cycle))
system.cpu0.timesIdled                           1891                       # Number of times that the entire CPU went into an idle state and unscheduled itself (Count)
system.cpu0.idleCycles                         398979                       # Total number of cycles that the CPU has spent unscheduled due to idling (Cycle)
system.cpu0.committedInsts                   25016782                       # Number of Instructions Simulated (Count)
system.cpu0.committedOps                     45722574                       # Number of Ops (including micro ops) Simulated (Count)
system.cpu0.cpi                              4.645737                       # CPI: Cycles Per Instruction ((Cycle/Count))
system.cpu0.totalCpi                         4.645737                       # CPI: Total CPI of All Threads ((Cycle/Count))
system.cpu0.ipc                              0.215251                       # IPC: Instructions Per Cycle ((Count/Cycle))
system.cpu0.totalIpc                         0.215251                       # IPC: Total IPC of All Threads ((Count/Cycle))
system.cpu0.intRegfileReads                  34502295                       # Number of integer regfile reads (Count)
system.cpu0.intRegfileWrites                 16141868                       # Number of integer regfile writes (Count)
system.cpu0.fpRegfileReads                   30575455                       # Number of floating regfile reads (Count)
system.cpu0.fpRegfileWrites                  19307905                       # Number of floating regfile writes (Count)
system.cpu0.ccRegfileReads                   29407839                       # number of cc regfile reads (Count)
system.cpu0.ccRegfileWrites                  12574309                       # number of cc regfile writes (Count)
system.cpu0.miscRegfileReads                 19107043                       # number of misc regfile reads (Count)
system.cpu0.miscRegfileWrites                     234                       # number of misc regfile writes (Count)
system.cpu0.MemDepUnit__0.insertedLoads       7788529                       # Number of loads inserted to the mem dependence unit. (Count)
system.cpu0.MemDepUnit__0.insertedStores      1329425                       # Number of stores inserted to the mem dependence unit. (Count)
system.cpu0.MemDepUnit__0.conflictingLoads        67684                       # Number of conflicting loads. (Count)
system.cpu0.MemDepUnit__0.conflictingStores        66323                       # Number of conflicting stores. (Count)
system.cpu0.MemDepUnit__1.insertedLoads             0                       # Number of loads inserted to the mem dependence unit. (Count)
system.cpu0.MemDepUnit__1.insertedStores            0                       # Number of stores inserted to the mem dependence unit. (Count)
system.cpu0.MemDepUnit__1.conflictingLoads            0                       # Number of conflicting loads. (Count)
system.cpu0.MemDepUnit__1.conflictingStores            0                       # Number of conflicting stores. (Count)
system.cpu0.MemDepUnit__2.insertedLoads             0                       # Number of loads inserted to the mem dependence unit. (Count)
system.cpu0.MemDepUnit__2.insertedStores            0                       # Number of stores inserted to the mem dependence unit. (Count)
system.cpu0.MemDepUnit__2.conflictingLoads            0                       # Number of conflicting loads. (Count)
system.cpu0.MemDepUnit__2.conflictingStores            0                       # Number of conflicting stores. (Count)
system.cpu0.MemDepUnit__3.insertedLoads             0                       # Number of loads inserted to the mem dependence unit. (Count)
system.cpu0.MemDepUnit__3.insertedStores            0                       # Number of stores inserted to the mem dependence unit. (Count)
system.cpu0.MemDepUnit__3.conflictingLoads            0                       # Number of conflicting loads. (Count)
system.cpu0.MemDepUnit__3.conflictingStores            0                       # Number of conflicting stores. (Count)
system.cpu0.branchPred.lookups                4747259                       # Number of BP lookups (Count)
system.cpu0.branchPred.condPredicted          4692044                       # Number of conditional branches predicted (Count)
system.cpu0.branchPred.condIncorrect             9087                       # Number of conditional branches incorrect (Count)
system.cpu0.branchPred.BTBLookups             1617733                       # Number of BTB lookups (Count)
system.cpu0.branchPred.BTBHits                1614035                       # Number of BTB hits (Count)
system.cpu0.branchPred.BTBHitRatio           0.997714                       # BTB Hit Ratio (Ratio)
system.cpu0.branchPred.RASUsed                  19404                       # Number of times the RAS was used to get a target. (Count)
system.cpu0.branchPred.RASIncorrect                 6                       # Number of incorrect RAS predictions. (Count)
system.cpu0.branchPred.indirectLookups          10960                       # Number of indirect predictor lookups. (Count)
system.cpu0.branchPred.indirectHits              6645                       # Number of indirect target hits. (Count)
system.cpu0.branchPred.indirectMisses            4315                       # Number of indirect misses. (Count)
system.cpu0.branchPred.indirectMispredicted          892                       # Number of mispredicted indirect branches. (Count)
system.cpu0.commit.commitSquashedInsts         463361                       # The number of squashed insts skipped by commit (Count)
system.cpu0.commit.commitNonSpecStalls           1116                       # The number of times commit has been forced to stall to communicate backwards (Count)
system.cpu0.commit.branchMispredicts             9405                       # The number of times a branch was mispredicted (Count)
system.cpu0.commit.numCommittedDist::samples    115755030                       # Number of insts commited each cycle (Count)
system.cpu0.commit.numCommittedDist::mean     0.394994                       # Number of insts commited each cycle (Count)
system.cpu0.commit.numCommittedDist::stdev     1.602131                       # Number of insts commited each cycle (Count)
system.cpu0.commit.numCommittedDist::underflows            0      0.00%      0.00% # Number of insts commited each cycle (Count)
system.cpu0.commit.numCommittedDist::0      106944461     92.39%     92.39% # Number of insts commited each cycle (Count)
system.cpu0.commit.numCommittedDist::1        1661831      1.44%     93.82% # Number of insts commited each cycle (Count)
system.cpu0.commit.numCommittedDist::2         790612      0.68%     94.51% # Number of insts commited each cycle (Count)
system.cpu0.commit.numCommittedDist::3        1117367      0.97%     95.47% # Number of insts commited each cycle (Count)
system.cpu0.commit.numCommittedDist::4         402742      0.35%     95.82% # Number of insts commited each cycle (Count)
system.cpu0.commit.numCommittedDist::5         292432      0.25%     96.07% # Number of insts commited each cycle (Count)
system.cpu0.commit.numCommittedDist::6         143093      0.12%     96.20% # Number of insts commited each cycle (Count)
system.cpu0.commit.numCommittedDist::7          24204      0.02%     96.22% # Number of insts commited each cycle (Count)
system.cpu0.commit.numCommittedDist::8        4378288      3.78%    100.00% # Number of insts commited each cycle (Count)
system.cpu0.commit.numCommittedDist::overflows            0      0.00%    100.00% # Number of insts commited each cycle (Count)
system.cpu0.commit.numCommittedDist::min_value            0                       # Number of insts commited each cycle (Count)
system.cpu0.commit.numCommittedDist::max_value            8                       # Number of insts commited each cycle (Count)
system.cpu0.commit.numCommittedDist::total    115755030                       # Number of insts commited each cycle (Count)
system.cpu0.commit.instsCommitted            25016782                       # Number of instructions committed (Count)
system.cpu0.commit.opsCommitted              45722574                       # Number of ops (including micro ops) committed (Count)
system.cpu0.commit.memRefs                    9012292                       # Number of memory references committed (Count)
system.cpu0.commit.loads                      7705532                       # Number of loads committed (Count)
system.cpu0.commit.amos                             0                       # Number of atomic instructions committed (Count)
system.cpu0.commit.membars                        588                       # Number of memory barriers committed (Count)
system.cpu0.commit.branches                   4655342                       # Number of branches committed (Count)
system.cpu0.commit.vectorInstructions               0                       # Number of committed Vector instructions. (Count)
system.cpu0.commit.floating                  23454597                       # Number of committed floating point instructions. (Count)
system.cpu0.commit.integer                   31028679                       # Number of committed integer instructions. (Count)
system.cpu0.commit.functionCalls                 9165                       # Number of function calls committed. (Count)
system.cpu0.commit.committedInstType_0::No_OpClass         2177      0.00%      0.00% # Class of committed instruction (Count)
system.cpu0.commit.committedInstType_0::IntAlu     23034586     50.38%     50.38% # Class of committed instruction (Count)
system.cpu0.commit.committedInstType_0::IntMult          236      0.00%     50.38% # Class of committed instruction (Count)
system.cpu0.commit.committedInstType_0::IntDiv         2683      0.01%     50.39% # Class of committed instruction (Count)
system.cpu0.commit.committedInstType_0::FloatAdd      3565831      7.80%     58.19% # Class of committed instruction (Count)
system.cpu0.commit.committedInstType_0::FloatCmp            0      0.00%     58.19% # Class of committed instruction (Count)
system.cpu0.commit.committedInstType_0::FloatCvt          416      0.00%     58.19% # Class of committed instruction (Count)
system.cpu0.commit.committedInstType_0::FloatMult            0      0.00%     58.19% # Class of committed instruction (Count)
system.cpu0.commit.committedInstType_0::FloatMultAcc            0      0.00%     58.19% # Class of committed instruction (Count)
system.cpu0.commit.committedInstType_0::FloatDiv            0      0.00%     58.19% # Class of committed instruction (Count)
system.cpu0.commit.committedInstType_0::FloatMisc            0      0.00%     58.19% # Class of committed instruction (Count)
system.cpu0.commit.committedInstType_0::FloatSqrt            0      0.00%     58.19% # Class of committed instruction (Count)
system.cpu0.commit.committedInstType_0::SimdAdd         2080      0.00%     58.19% # Class of committed instruction (Count)
system.cpu0.commit.committedInstType_0::SimdAddAcc            0      0.00%     58.19% # Class of committed instruction (Count)
system.cpu0.commit.committedInstType_0::SimdAlu        14325      0.03%     58.23% # Class of committed instruction (Count)
system.cpu0.commit.committedInstType_0::SimdCmp           72      0.00%     58.23% # Class of committed instruction (Count)
system.cpu0.commit.committedInstType_0::SimdCvt         4652      0.01%     58.24% # Class of committed instruction (Count)
system.cpu0.commit.committedInstType_0::SimdMisc         3761      0.01%     58.24% # Class of committed instruction (Count)
system.cpu0.commit.committedInstType_0::SimdMult            0      0.00%     58.24% # Class of committed instruction (Count)
system.cpu0.commit.committedInstType_0::SimdMultAcc            0      0.00%     58.24% # Class of committed instruction (Count)
system.cpu0.commit.committedInstType_0::SimdShift          932      0.00%     58.25% # Class of committed instruction (Count)
system.cpu0.commit.committedInstType_0::SimdShiftAcc            0      0.00%     58.25% # Class of committed instruction (Count)
system.cpu0.commit.committedInstType_0::SimdDiv            0      0.00%     58.25% # Class of committed instruction (Count)
system.cpu0.commit.committedInstType_0::SimdSqrt            0      0.00%     58.25% # Class of committed instruction (Count)
system.cpu0.commit.committedInstType_0::SimdFloatAdd      6567816     14.36%     72.61% # Class of committed instruction (Count)
system.cpu0.commit.committedInstType_0::SimdFloatAlu            0      0.00%     72.61% # Class of committed instruction (Count)
system.cpu0.commit.committedInstType_0::SimdFloatCmp           24      0.00%     72.61% # Class of committed instruction (Count)
system.cpu0.commit.committedInstType_0::SimdFloatCvt      3007987      6.58%     79.19% # Class of committed instruction (Count)
system.cpu0.commit.committedInstType_0::SimdFloatDiv           15      0.00%     79.19% # Class of committed instruction (Count)
system.cpu0.commit.committedInstType_0::SimdFloatMisc            0      0.00%     79.19% # Class of committed instruction (Count)
system.cpu0.commit.committedInstType_0::SimdFloatMult       502689      1.10%     80.29% # Class of committed instruction (Count)
system.cpu0.commit.committedInstType_0::SimdFloatMultAcc            0      0.00%     80.29% # Class of committed instruction (Count)
system.cpu0.commit.committedInstType_0::SimdFloatSqrt            0      0.00%     80.29% # Class of committed instruction (Count)
system.cpu0.commit.committedInstType_0::SimdReduceAdd            0      0.00%     80.29% # Class of committed instruction (Count)
system.cpu0.commit.committedInstType_0::SimdReduceAlu            0      0.00%     80.29% # Class of committed instruction (Count)
system.cpu0.commit.committedInstType_0::SimdReduceCmp            0      0.00%     80.29% # Class of committed instruction (Count)
system.cpu0.commit.committedInstType_0::SimdFloatReduceAdd            0      0.00%     80.29% # Class of committed instruction (Count)
system.cpu0.commit.committedInstType_0::SimdFloatReduceCmp            0      0.00%     80.29% # Class of committed instruction (Count)
system.cpu0.commit.committedInstType_0::SimdAes            0      0.00%     80.29% # Class of committed instruction (Count)
system.cpu0.commit.committedInstType_0::SimdAesMix            0      0.00%     80.29% # Class of committed instruction (Count)
system.cpu0.commit.committedInstType_0::SimdSha1Hash            0      0.00%     80.29% # Class of committed instruction (Count)
system.cpu0.commit.committedInstType_0::SimdSha1Hash2            0      0.00%     80.29% # Class of committed instruction (Count)
system.cpu0.commit.committedInstType_0::SimdSha256Hash            0      0.00%     80.29% # Class of committed instruction (Count)
system.cpu0.commit.committedInstType_0::SimdSha256Hash2            0      0.00%     80.29% # Class of committed instruction (Count)
system.cpu0.commit.committedInstType_0::SimdShaSigma2            0      0.00%     80.29% # Class of committed instruction (Count)
system.cpu0.commit.committedInstType_0::SimdShaSigma3            0      0.00%     80.29% # Class of committed instruction (Count)
system.cpu0.commit.committedInstType_0::SimdPredAlu            0      0.00%     80.29% # Class of committed instruction (Count)
system.cpu0.commit.committedInstType_0::MemRead       121832      0.27%     80.56% # Class of committed instruction (Count)
system.cpu0.commit.committedInstType_0::MemWrite       112816      0.25%     80.80% # Class of committed instruction (Count)
system.cpu0.commit.committedInstType_0::FloatMemRead      7583700     16.59%     97.39% # Class of committed instruction (Count)
system.cpu0.commit.committedInstType_0::FloatMemWrite      1193944      2.61%    100.00% # Class of committed instruction (Count)
system.cpu0.commit.committedInstType_0::IprAccess            0      0.00%    100.00% # Class of committed instruction (Count)
system.cpu0.commit.committedInstType_0::InstPrefetch            0      0.00%    100.00% # Class of committed instruction (Count)
system.cpu0.commit.committedInstType_0::total     45722574                       # Class of committed instruction (Count)
system.cpu0.commit.commitEligibleSamples      4378288                       # number cycles where commit BW limit reached (Cycle)
system.cpu0.dcache.demandHits::cpu00.data      5484297                       # number of demand (read+write) hits (Count)
system.cpu0.dcache.demandHits::total          5484297                       # number of demand (read+write) hits (Count)
system.cpu0.dcache.overallHits::cpu00.data      5484297                       # number of overall hits (Count)
system.cpu0.dcache.overallHits::total         5484297                       # number of overall hits (Count)
system.cpu0.dcache.demandMisses::cpu00.data      3581211                       # number of demand (read+write) misses (Count)
system.cpu0.dcache.demandMisses::total        3581211                       # number of demand (read+write) misses (Count)
system.cpu0.dcache.overallMisses::cpu00.data      3581211                       # number of overall misses (Count)
system.cpu0.dcache.overallMisses::total       3581211                       # number of overall misses (Count)
system.cpu0.dcache.demandMissLatency::cpu00.data 242443217247                       # number of demand (read+write) miss ticks (Tick)
system.cpu0.dcache.demandMissLatency::total 242443217247                       # number of demand (read+write) miss ticks (Tick)
system.cpu0.dcache.overallMissLatency::cpu00.data 242443217247                       # number of overall miss ticks (Tick)
system.cpu0.dcache.overallMissLatency::total 242443217247                       # number of overall miss ticks (Tick)
system.cpu0.dcache.demandAccesses::cpu00.data      9065508                       # number of demand (read+write) accesses (Count)
system.cpu0.dcache.demandAccesses::total      9065508                       # number of demand (read+write) accesses (Count)
system.cpu0.dcache.overallAccesses::cpu00.data      9065508                       # number of overall (read+write) accesses (Count)
system.cpu0.dcache.overallAccesses::total      9065508                       # number of overall (read+write) accesses (Count)
system.cpu0.dcache.demandMissRate::cpu00.data     0.395037                       # miss rate for demand accesses (Ratio)
system.cpu0.dcache.demandMissRate::total     0.395037                       # miss rate for demand accesses (Ratio)
system.cpu0.dcache.overallMissRate::cpu00.data     0.395037                       # miss rate for overall accesses (Ratio)
system.cpu0.dcache.overallMissRate::total     0.395037                       # miss rate for overall accesses (Ratio)
system.cpu0.dcache.demandAvgMissLatency::cpu00.data 67698.668760                       # average overall miss latency in ticks ((Tick/Count))
system.cpu0.dcache.demandAvgMissLatency::total 67698.668760                       # average overall miss latency in ticks ((Tick/Count))
system.cpu0.dcache.overallAvgMissLatency::cpu00.data 67698.668760                       # average overall miss latency ((Tick/Count))
system.cpu0.dcache.overallAvgMissLatency::total 67698.668760                       # average overall miss latency ((Tick/Count))
system.cpu0.dcache.blockedCycles::no_mshrs     13675895                       # number of cycles access was blocked (Cycle)
system.cpu0.dcache.blockedCycles::no_targets         3307                       # number of cycles access was blocked (Cycle)
system.cpu0.dcache.blockedCauses::no_mshrs       128636                       # number of times access was blocked (Count)
system.cpu0.dcache.blockedCauses::no_targets           23                       # number of times access was blocked (Count)
system.cpu0.dcache.avgBlocked::no_mshrs    106.314679                       # average number of cycles each access was blocked ((Cycle/Count))
system.cpu0.dcache.avgBlocked::no_targets   143.782609                       # average number of cycles each access was blocked ((Cycle/Count))
system.cpu0.dcache.writebacks::writebacks       159419                       # number of writebacks (Count)
system.cpu0.dcache.writebacks::total           159419                       # number of writebacks (Count)
system.cpu0.dcache.demandMshrHits::cpu00.data      2854922                       # number of demand (read+write) MSHR hits (Count)
system.cpu0.dcache.demandMshrHits::total      2854922                       # number of demand (read+write) MSHR hits (Count)
system.cpu0.dcache.overallMshrHits::cpu00.data      2854922                       # number of overall MSHR hits (Count)
system.cpu0.dcache.overallMshrHits::total      2854922                       # number of overall MSHR hits (Count)
system.cpu0.dcache.demandMshrMisses::cpu00.data       726289                       # number of demand (read+write) MSHR misses (Count)
system.cpu0.dcache.demandMshrMisses::total       726289                       # number of demand (read+write) MSHR misses (Count)
system.cpu0.dcache.overallMshrMisses::cpu00.data       726289                       # number of overall MSHR misses (Count)
system.cpu0.dcache.overallMshrMisses::total       726289                       # number of overall MSHR misses (Count)
system.cpu0.dcache.demandMshrMissLatency::cpu00.data  66763862247                       # number of demand (read+write) MSHR miss ticks (Tick)
system.cpu0.dcache.demandMshrMissLatency::total  66763862247                       # number of demand (read+write) MSHR miss ticks (Tick)
system.cpu0.dcache.overallMshrMissLatency::cpu00.data  66763862247                       # number of overall MSHR miss ticks (Tick)
system.cpu0.dcache.overallMshrMissLatency::total  66763862247                       # number of overall MSHR miss ticks (Tick)
system.cpu0.dcache.demandMshrMissRate::cpu00.data     0.080116                       # mshr miss ratio for demand accesses (Ratio)
system.cpu0.dcache.demandMshrMissRate::total     0.080116                       # mshr miss ratio for demand accesses (Ratio)
system.cpu0.dcache.overallMshrMissRate::cpu00.data     0.080116                       # mshr miss ratio for overall accesses (Ratio)
system.cpu0.dcache.overallMshrMissRate::total     0.080116                       # mshr miss ratio for overall accesses (Ratio)
system.cpu0.dcache.demandAvgMshrMissLatency::cpu00.data 91924.650170                       # average overall mshr miss latency ((Tick/Count))
system.cpu0.dcache.demandAvgMshrMissLatency::total 91924.650170                       # average overall mshr miss latency ((Tick/Count))
system.cpu0.dcache.overallAvgMshrMissLatency::cpu00.data 91924.650170                       # average overall mshr miss latency ((Tick/Count))
system.cpu0.dcache.overallAvgMshrMissLatency::total 91924.650170                       # average overall mshr miss latency ((Tick/Count))
system.cpu0.dcache.replacements                724885                       # number of replacements (Count)
system.cpu0.dcache.LockedRMWReadReq.hits::cpu00.data          251                       # number of LockedRMWReadReq hits (Count)
system.cpu0.dcache.LockedRMWReadReq.hits::total          251                       # number of LockedRMWReadReq hits (Count)
system.cpu0.dcache.LockedRMWReadReq.misses::cpu00.data           43                       # number of LockedRMWReadReq misses (Count)
system.cpu0.dcache.LockedRMWReadReq.misses::total           43                       # number of LockedRMWReadReq misses (Count)
system.cpu0.dcache.LockedRMWReadReq.missLatency::cpu00.data       904250                       # number of LockedRMWReadReq miss ticks (Tick)
system.cpu0.dcache.LockedRMWReadReq.missLatency::total       904250                       # number of LockedRMWReadReq miss ticks (Tick)
system.cpu0.dcache.LockedRMWReadReq.accesses::cpu00.data          294                       # number of LockedRMWReadReq accesses(hits+misses) (Count)
system.cpu0.dcache.LockedRMWReadReq.accesses::total          294                       # number of LockedRMWReadReq accesses(hits+misses) (Count)
system.cpu0.dcache.LockedRMWReadReq.missRate::cpu00.data     0.146259                       # miss rate for LockedRMWReadReq accesses (Ratio)
system.cpu0.dcache.LockedRMWReadReq.missRate::total     0.146259                       # miss rate for LockedRMWReadReq accesses (Ratio)
system.cpu0.dcache.LockedRMWReadReq.avgMissLatency::cpu00.data 21029.069767                       # average LockedRMWReadReq miss latency ((Tick/Count))
system.cpu0.dcache.LockedRMWReadReq.avgMissLatency::total 21029.069767                       # average LockedRMWReadReq miss latency ((Tick/Count))
system.cpu0.dcache.LockedRMWReadReq.mshrMisses::cpu00.data           43                       # number of LockedRMWReadReq MSHR misses (Count)
system.cpu0.dcache.LockedRMWReadReq.mshrMisses::total           43                       # number of LockedRMWReadReq MSHR misses (Count)
system.cpu0.dcache.LockedRMWReadReq.mshrMissLatency::cpu00.data      2419000                       # number of LockedRMWReadReq MSHR miss ticks (Tick)
system.cpu0.dcache.LockedRMWReadReq.mshrMissLatency::total      2419000                       # number of LockedRMWReadReq MSHR miss ticks (Tick)
system.cpu0.dcache.LockedRMWReadReq.mshrMissRate::cpu00.data     0.146259                       # mshr miss rate for LockedRMWReadReq accesses (Ratio)
system.cpu0.dcache.LockedRMWReadReq.mshrMissRate::total     0.146259                       # mshr miss rate for LockedRMWReadReq accesses (Ratio)
system.cpu0.dcache.LockedRMWReadReq.avgMshrMissLatency::cpu00.data 56255.813953                       # average LockedRMWReadReq mshr miss latency ((Tick/Count))
system.cpu0.dcache.LockedRMWReadReq.avgMshrMissLatency::total 56255.813953                       # average LockedRMWReadReq mshr miss latency ((Tick/Count))
system.cpu0.dcache.LockedRMWWriteReq.hits::cpu00.data          294                       # number of LockedRMWWriteReq hits (Count)
system.cpu0.dcache.LockedRMWWriteReq.hits::total          294                       # number of LockedRMWWriteReq hits (Count)
system.cpu0.dcache.LockedRMWWriteReq.accesses::cpu00.data          294                       # number of LockedRMWWriteReq accesses(hits+misses) (Count)
system.cpu0.dcache.LockedRMWWriteReq.accesses::total          294                       # number of LockedRMWWriteReq accesses(hits+misses) (Count)
system.cpu0.dcache.ReadReq.hits::cpu00.data      4329326                       # number of ReadReq hits (Count)
system.cpu0.dcache.ReadReq.hits::total        4329326                       # number of ReadReq hits (Count)
system.cpu0.dcache.ReadReq.misses::cpu00.data      3429696                       # number of ReadReq misses (Count)
system.cpu0.dcache.ReadReq.misses::total      3429696                       # number of ReadReq misses (Count)
system.cpu0.dcache.ReadReq.missLatency::cpu00.data 230370854250                       # number of ReadReq miss ticks (Tick)
system.cpu0.dcache.ReadReq.missLatency::total 230370854250                       # number of ReadReq miss ticks (Tick)
system.cpu0.dcache.ReadReq.accesses::cpu00.data      7759022                       # number of ReadReq accesses(hits+misses) (Count)
system.cpu0.dcache.ReadReq.accesses::total      7759022                       # number of ReadReq accesses(hits+misses) (Count)
system.cpu0.dcache.ReadReq.missRate::cpu00.data     0.442027                       # miss rate for ReadReq accesses (Ratio)
system.cpu0.dcache.ReadReq.missRate::total     0.442027                       # miss rate for ReadReq accesses (Ratio)
system.cpu0.dcache.ReadReq.avgMissLatency::cpu00.data 67169.467571                       # average ReadReq miss latency ((Tick/Count))
system.cpu0.dcache.ReadReq.avgMissLatency::total 67169.467571                       # average ReadReq miss latency ((Tick/Count))
system.cpu0.dcache.ReadReq.mshrHits::cpu00.data      2854912                       # number of ReadReq MSHR hits (Count)
system.cpu0.dcache.ReadReq.mshrHits::total      2854912                       # number of ReadReq MSHR hits (Count)
system.cpu0.dcache.ReadReq.mshrMisses::cpu00.data       574784                       # number of ReadReq MSHR misses (Count)
system.cpu0.dcache.ReadReq.mshrMisses::total       574784                       # number of ReadReq MSHR misses (Count)
system.cpu0.dcache.ReadReq.mshrMissLatency::cpu00.data  54767826000                       # number of ReadReq MSHR miss ticks (Tick)
system.cpu0.dcache.ReadReq.mshrMissLatency::total  54767826000                       # number of ReadReq MSHR miss ticks (Tick)
system.cpu0.dcache.ReadReq.mshrMissRate::cpu00.data     0.074079                       # mshr miss rate for ReadReq accesses (Ratio)
system.cpu0.dcache.ReadReq.mshrMissRate::total     0.074079                       # mshr miss rate for ReadReq accesses (Ratio)
system.cpu0.dcache.ReadReq.avgMshrMissLatency::cpu00.data 95284.186755                       # average ReadReq mshr miss latency ((Tick/Count))
system.cpu0.dcache.ReadReq.avgMshrMissLatency::total 95284.186755                       # average ReadReq mshr miss latency ((Tick/Count))
system.cpu0.dcache.WriteReq.hits::cpu00.data      1154971                       # number of WriteReq hits (Count)
system.cpu0.dcache.WriteReq.hits::total       1154971                       # number of WriteReq hits (Count)
system.cpu0.dcache.WriteReq.misses::cpu00.data       151515                       # number of WriteReq misses (Count)
system.cpu0.dcache.WriteReq.misses::total       151515                       # number of WriteReq misses (Count)
system.cpu0.dcache.WriteReq.missLatency::cpu00.data  12072362997                       # number of WriteReq miss ticks (Tick)
system.cpu0.dcache.WriteReq.missLatency::total  12072362997                       # number of WriteReq miss ticks (Tick)
system.cpu0.dcache.WriteReq.accesses::cpu00.data      1306486                       # number of WriteReq accesses(hits+misses) (Count)
system.cpu0.dcache.WriteReq.accesses::total      1306486                       # number of WriteReq accesses(hits+misses) (Count)
system.cpu0.dcache.WriteReq.missRate::cpu00.data     0.115971                       # miss rate for WriteReq accesses (Ratio)
system.cpu0.dcache.WriteReq.missRate::total     0.115971                       # miss rate for WriteReq accesses (Ratio)
system.cpu0.dcache.WriteReq.avgMissLatency::cpu00.data 79677.675458                       # average WriteReq miss latency ((Tick/Count))
system.cpu0.dcache.WriteReq.avgMissLatency::total 79677.675458                       # average WriteReq miss latency ((Tick/Count))
system.cpu0.dcache.WriteReq.mshrHits::cpu00.data           10                       # number of WriteReq MSHR hits (Count)
system.cpu0.dcache.WriteReq.mshrHits::total           10                       # number of WriteReq MSHR hits (Count)
system.cpu0.dcache.WriteReq.mshrMisses::cpu00.data       151505                       # number of WriteReq MSHR misses (Count)
system.cpu0.dcache.WriteReq.mshrMisses::total       151505                       # number of WriteReq MSHR misses (Count)
system.cpu0.dcache.WriteReq.mshrMissLatency::cpu00.data  11996036247                       # number of WriteReq MSHR miss ticks (Tick)
system.cpu0.dcache.WriteReq.mshrMissLatency::total  11996036247                       # number of WriteReq MSHR miss ticks (Tick)
system.cpu0.dcache.WriteReq.mshrMissRate::cpu00.data     0.115964                       # mshr miss rate for WriteReq accesses (Ratio)
system.cpu0.dcache.WriteReq.mshrMissRate::total     0.115964                       # mshr miss rate for WriteReq accesses (Ratio)
system.cpu0.dcache.WriteReq.avgMshrMissLatency::cpu00.data 79179.144233                       # average WriteReq mshr miss latency ((Tick/Count))
system.cpu0.dcache.WriteReq.avgMshrMissLatency::total 79179.144233                       # average WriteReq mshr miss latency ((Tick/Count))
system.cpu0.dcache.power_state.pwrStateResidencyTicks::UNDEFINED  29055348500                       # Cumulative time (in ticks) in various power states (Tick)
system.cpu0.dcache.tags.tagsInUse         1021.897789                       # Average ticks per tags in use ((Tick/Count))
system.cpu0.dcache.tags.totalRefs             6211176                       # Total number of references to valid blocks. (Count)
system.cpu0.dcache.tags.sampledRefs            726223                       # Sample count of references to valid blocks. (Count)
system.cpu0.dcache.tags.avgRefs              8.552712                       # Average number of references to valid blocks. ((Count/Count))
system.cpu0.dcache.tags.warmupTick             149000                       # The tick when the warmup percentage was hit. (Tick)
system.cpu0.dcache.tags.occupancies::cpu00.data  1021.897789                       # Average occupied blocks per tick, per requestor ((Count/Tick))
system.cpu0.dcache.tags.avgOccs::cpu00.data     0.997947                       # Average percentage of cache occupancy ((Ratio/Tick))
system.cpu0.dcache.tags.avgOccs::total       0.997947                       # Average percentage of cache occupancy ((Ratio/Tick))
system.cpu0.dcache.tags.occupanciesTaskId::1024         1024                       # Occupied blocks per task id (Count)
system.cpu0.dcache.tags.ageTaskId_1024::0          145                       # Occupied blocks per task id, per block age (Count)
system.cpu0.dcache.tags.ageTaskId_1024::1          878                       # Occupied blocks per task id, per block age (Count)
system.cpu0.dcache.tags.ageTaskId_1024::4            1                       # Occupied blocks per task id, per block age (Count)
system.cpu0.dcache.tags.ratioOccsTaskId::1024            1                       # Ratio of occupied blocks and all blocks, per task id (Ratio)
system.cpu0.dcache.tags.tagAccesses          18858415                       # Number of tag accesses (Count)
system.cpu0.dcache.tags.dataAccesses         18858415                       # Number of data accesses (Count)
system.cpu0.dcache.tags.power_state.pwrStateResidencyTicks::UNDEFINED  29055348500                       # Cumulative time (in ticks) in various power states (Tick)
system.cpu0.decode.idleCycles                 2823082                       # Number of cycles decode is idle (Cycle)
system.cpu0.decode.blockedCycles            106744211                       # Number of cycles decode is blocked (Cycle)
system.cpu0.decode.runCycles                  4108601                       # Number of cycles decode is running (Cycle)
system.cpu0.decode.unblockCycles              2133835                       # Number of cycles decode is unblocking (Cycle)
system.cpu0.decode.squashCycles                 12687                       # Number of cycles decode is squashing (Cycle)
system.cpu0.decode.branchResolved             1610435                       # Number of times decode resolved a branch (Count)
system.cpu0.decode.branchMispred                 1369                       # Number of times decode detected a branch misprediction (Count)
system.cpu0.decode.decodedInsts              46392574                       # Number of instructions handled by decode (Count)
system.cpu0.decode.squashedInsts                 6599                       # Number of squashed instructions handled by decode (Count)
system.cpu0.dtb_walker_cache.blockedCycles::no_mshrs            0                       # number of cycles access was blocked (Cycle)
system.cpu0.dtb_walker_cache.blockedCycles::no_targets            0                       # number of cycles access was blocked (Cycle)
system.cpu0.dtb_walker_cache.blockedCauses::no_mshrs            0                       # number of times access was blocked (Count)
system.cpu0.dtb_walker_cache.blockedCauses::no_targets            0                       # number of times access was blocked (Count)
system.cpu0.dtb_walker_cache.avgBlocked::no_mshrs          nan                       # average number of cycles each access was blocked ((Cycle/Count))
system.cpu0.dtb_walker_cache.avgBlocked::no_targets          nan                       # average number of cycles each access was blocked ((Cycle/Count))
system.cpu0.dtb_walker_cache.replacements            0                       # number of replacements (Count)
system.cpu0.dtb_walker_cache.power_state.pwrStateResidencyTicks::UNDEFINED  29055348500                       # Cumulative time (in ticks) in various power states (Tick)
system.cpu0.dtb_walker_cache.tags.tagsInUse            0                       # Average ticks per tags in use ((Tick/Count))
system.cpu0.dtb_walker_cache.tags.totalRefs            0                       # Total number of references to valid blocks. (Count)
system.cpu0.dtb_walker_cache.tags.sampledRefs            0                       # Sample count of references to valid blocks. (Count)
system.cpu0.dtb_walker_cache.tags.avgRefs          nan                       # Average number of references to valid blocks. ((Count/Count))
system.cpu0.dtb_walker_cache.tags.warmupTick            0                       # The tick when the warmup percentage was hit. (Tick)
system.cpu0.dtb_walker_cache.tags.tagAccesses            0                       # Number of tag accesses (Count)
system.cpu0.dtb_walker_cache.tags.dataAccesses            0                       # Number of data accesses (Count)
system.cpu0.dtb_walker_cache.tags.power_state.pwrStateResidencyTicks::UNDEFINED  29055348500                       # Cumulative time (in ticks) in various power states (Tick)
system.cpu0.fetch.icacheStallCycles           3931393                       # Number of cycles fetch is stalled on an Icache miss (Cycle)
system.cpu0.fetch.insts                      25405041                       # Number of instructions fetch has processed (Count)
system.cpu0.fetch.branches                    4747259                       # Number of branches that fetch encountered (Count)
system.cpu0.fetch.predictedBranches           1640084                       # Number of branches that fetch has predicted taken (Count)
system.cpu0.fetch.cycles                    111863268                       # Number of cycles fetch has run and was not squashing or blocked (Cycle)
system.cpu0.fetch.squashCycles                  28068                       # Number of cycles fetch has spent squashing (Cycle)
system.cpu0.fetch.miscStallCycles                1807                       # Number of cycles fetch has spent waiting on interrupts, or bad addresses, or out of MSHRs (Cycle)
system.cpu0.fetch.pendingTrapStallCycles        11776                       # Number of stall cycles due to pending traps (Cycle)
system.cpu0.fetch.icacheWaitRetryStallCycles          138                       # Number of stall cycles due to full MSHR (Cycle)
system.cpu0.fetch.cacheLines                  3810880                       # Number of cache lines fetched (Count)
system.cpu0.fetch.icacheSquashes                 3390                       # Number of outstanding Icache misses that were squashed (Count)
system.cpu0.fetch.nisnDist::samples         115822416                       # Number of instructions fetched each cycle (Total) (Count)
system.cpu0.fetch.nisnDist::mean             0.401426                       # Number of instructions fetched each cycle (Total) (Count)
system.cpu0.fetch.nisnDist::stdev            1.653053                       # Number of instructions fetched each cycle (Total) (Count)
system.cpu0.fetch.nisnDist::underflows              0      0.00%      0.00% # Number of instructions fetched each cycle (Total) (Count)
system.cpu0.fetch.nisnDist::0               108216015     93.43%     93.43% # Number of instructions fetched each cycle (Total) (Count)
system.cpu0.fetch.nisnDist::1                  642688      0.55%     93.99% # Number of instructions fetched each cycle (Total) (Count)
system.cpu0.fetch.nisnDist::2                  330597      0.29%     94.27% # Number of instructions fetched each cycle (Total) (Count)
system.cpu0.fetch.nisnDist::3                 1178425      1.02%     95.29% # Number of instructions fetched each cycle (Total) (Count)
system.cpu0.fetch.nisnDist::4                  121406      0.10%     95.40% # Number of instructions fetched each cycle (Total) (Count)
system.cpu0.fetch.nisnDist::5                  224997      0.19%     95.59% # Number of instructions fetched each cycle (Total) (Count)
system.cpu0.fetch.nisnDist::6                  209128      0.18%     95.77% # Number of instructions fetched each cycle (Total) (Count)
system.cpu0.fetch.nisnDist::7                  403651      0.35%     96.12% # Number of instructions fetched each cycle (Total) (Count)
system.cpu0.fetch.nisnDist::8                 4495509      3.88%    100.00% # Number of instructions fetched each cycle (Total) (Count)
system.cpu0.fetch.nisnDist::overflows               0      0.00%    100.00% # Number of instructions fetched each cycle (Total) (Count)
system.cpu0.fetch.nisnDist::min_value               0                       # Number of instructions fetched each cycle (Total) (Count)
system.cpu0.fetch.nisnDist::max_value               8                       # Number of instructions fetched each cycle (Total) (Count)
system.cpu0.fetch.nisnDist::total           115822416                       # Number of instructions fetched each cycle (Total) (Count)
system.cpu0.fetch.branchRate                 0.040847                       # Number of branch fetches per cycle (Ratio)
system.cpu0.fetch.rate                       0.218592                       # Number of inst fetches per cycle ((Count/Cycle))
system.cpu0.icache.demandHits::cpu00.inst      3807414                       # number of demand (read+write) hits (Count)
system.cpu0.icache.demandHits::total          3807414                       # number of demand (read+write) hits (Count)
system.cpu0.icache.overallHits::cpu00.inst      3807414                       # number of overall hits (Count)
system.cpu0.icache.overallHits::total         3807414                       # number of overall hits (Count)
system.cpu0.icache.demandMisses::cpu00.inst         3465                       # number of demand (read+write) misses (Count)
system.cpu0.icache.demandMisses::total           3465                       # number of demand (read+write) misses (Count)
system.cpu0.icache.overallMisses::cpu00.inst         3465                       # number of overall misses (Count)
system.cpu0.icache.overallMisses::total          3465                       # number of overall misses (Count)
system.cpu0.icache.demandMissLatency::cpu00.inst    220814748                       # number of demand (read+write) miss ticks (Tick)
system.cpu0.icache.demandMissLatency::total    220814748                       # number of demand (read+write) miss ticks (Tick)
system.cpu0.icache.overallMissLatency::cpu00.inst    220814748                       # number of overall miss ticks (Tick)
system.cpu0.icache.overallMissLatency::total    220814748                       # number of overall miss ticks (Tick)
system.cpu0.icache.demandAccesses::cpu00.inst      3810879                       # number of demand (read+write) accesses (Count)
system.cpu0.icache.demandAccesses::total      3810879                       # number of demand (read+write) accesses (Count)
system.cpu0.icache.overallAccesses::cpu00.inst      3810879                       # number of overall (read+write) accesses (Count)
system.cpu0.icache.overallAccesses::total      3810879                       # number of overall (read+write) accesses (Count)
system.cpu0.icache.demandMissRate::cpu00.inst     0.000909                       # miss rate for demand accesses (Ratio)
system.cpu0.icache.demandMissRate::total     0.000909                       # miss rate for demand accesses (Ratio)
system.cpu0.icache.overallMissRate::cpu00.inst     0.000909                       # miss rate for overall accesses (Ratio)
system.cpu0.icache.overallMissRate::total     0.000909                       # miss rate for overall accesses (Ratio)
system.cpu0.icache.demandAvgMissLatency::cpu00.inst 63727.200000                       # average overall miss latency in ticks ((Tick/Count))
system.cpu0.icache.demandAvgMissLatency::total 63727.200000                       # average overall miss latency in ticks ((Tick/Count))
system.cpu0.icache.overallAvgMissLatency::cpu00.inst 63727.200000                       # average overall miss latency ((Tick/Count))
system.cpu0.icache.overallAvgMissLatency::total 63727.200000                       # average overall miss latency ((Tick/Count))
system.cpu0.icache.blockedCycles::no_mshrs         1246                       # number of cycles access was blocked (Cycle)
system.cpu0.icache.blockedCycles::no_targets            0                       # number of cycles access was blocked (Cycle)
system.cpu0.icache.blockedCauses::no_mshrs           15                       # number of times access was blocked (Count)
system.cpu0.icache.blockedCauses::no_targets            0                       # number of times access was blocked (Count)
system.cpu0.icache.avgBlocked::no_mshrs     83.066667                       # average number of cycles each access was blocked ((Cycle/Count))
system.cpu0.icache.avgBlocked::no_targets          nan                       # average number of cycles each access was blocked ((Cycle/Count))
system.cpu0.icache.writebacks::writebacks         2230                       # number of writebacks (Count)
system.cpu0.icache.writebacks::total             2230                       # number of writebacks (Count)
system.cpu0.icache.demandMshrHits::cpu00.inst          721                       # number of demand (read+write) MSHR hits (Count)
system.cpu0.icache.demandMshrHits::total          721                       # number of demand (read+write) MSHR hits (Count)
system.cpu0.icache.overallMshrHits::cpu00.inst          721                       # number of overall MSHR hits (Count)
system.cpu0.icache.overallMshrHits::total          721                       # number of overall MSHR hits (Count)
system.cpu0.icache.demandMshrMisses::cpu00.inst         2744                       # number of demand (read+write) MSHR misses (Count)
system.cpu0.icache.demandMshrMisses::total         2744                       # number of demand (read+write) MSHR misses (Count)
system.cpu0.icache.overallMshrMisses::cpu00.inst         2744                       # number of overall MSHR misses (Count)
system.cpu0.icache.overallMshrMisses::total         2744                       # number of overall MSHR misses (Count)
system.cpu0.icache.demandMshrMissLatency::cpu00.inst    179872248                       # number of demand (read+write) MSHR miss ticks (Tick)
system.cpu0.icache.demandMshrMissLatency::total    179872248                       # number of demand (read+write) MSHR miss ticks (Tick)
system.cpu0.icache.overallMshrMissLatency::cpu00.inst    179872248                       # number of overall MSHR miss ticks (Tick)
system.cpu0.icache.overallMshrMissLatency::total    179872248                       # number of overall MSHR miss ticks (Tick)
system.cpu0.icache.demandMshrMissRate::cpu00.inst     0.000720                       # mshr miss ratio for demand accesses (Ratio)
system.cpu0.icache.demandMshrMissRate::total     0.000720                       # mshr miss ratio for demand accesses (Ratio)
system.cpu0.icache.overallMshrMissRate::cpu00.inst     0.000720                       # mshr miss ratio for overall accesses (Ratio)
system.cpu0.icache.overallMshrMissRate::total     0.000720                       # mshr miss ratio for overall accesses (Ratio)
system.cpu0.icache.demandAvgMshrMissLatency::cpu00.inst 65551.110787                       # average overall mshr miss latency ((Tick/Count))
system.cpu0.icache.demandAvgMshrMissLatency::total 65551.110787                       # average overall mshr miss latency ((Tick/Count))
system.cpu0.icache.overallAvgMshrMissLatency::cpu00.inst 65551.110787                       # average overall mshr miss latency ((Tick/Count))
system.cpu0.icache.overallAvgMshrMissLatency::total 65551.110787                       # average overall mshr miss latency ((Tick/Count))
system.cpu0.icache.replacements                  2230                       # number of replacements (Count)
system.cpu0.icache.ReadReq.hits::cpu00.inst      3807414                       # number of ReadReq hits (Count)
system.cpu0.icache.ReadReq.hits::total        3807414                       # number of ReadReq hits (Count)
system.cpu0.icache.ReadReq.misses::cpu00.inst         3465                       # number of ReadReq misses (Count)
system.cpu0.icache.ReadReq.misses::total         3465                       # number of ReadReq misses (Count)
system.cpu0.icache.ReadReq.missLatency::cpu00.inst    220814748                       # number of ReadReq miss ticks (Tick)
system.cpu0.icache.ReadReq.missLatency::total    220814748                       # number of ReadReq miss ticks (Tick)
system.cpu0.icache.ReadReq.accesses::cpu00.inst      3810879                       # number of ReadReq accesses(hits+misses) (Count)
system.cpu0.icache.ReadReq.accesses::total      3810879                       # number of ReadReq accesses(hits+misses) (Count)
system.cpu0.icache.ReadReq.missRate::cpu00.inst     0.000909                       # miss rate for ReadReq accesses (Ratio)
system.cpu0.icache.ReadReq.missRate::total     0.000909                       # miss rate for ReadReq accesses (Ratio)
system.cpu0.icache.ReadReq.avgMissLatency::cpu00.inst 63727.200000                       # average ReadReq miss latency ((Tick/Count))
system.cpu0.icache.ReadReq.avgMissLatency::total 63727.200000                       # average ReadReq miss latency ((Tick/Count))
system.cpu0.icache.ReadReq.mshrHits::cpu00.inst          721                       # number of ReadReq MSHR hits (Count)
system.cpu0.icache.ReadReq.mshrHits::total          721                       # number of ReadReq MSHR hits (Count)
system.cpu0.icache.ReadReq.mshrMisses::cpu00.inst         2744                       # number of ReadReq MSHR misses (Count)
system.cpu0.icache.ReadReq.mshrMisses::total         2744                       # number of ReadReq MSHR misses (Count)
system.cpu0.icache.ReadReq.mshrMissLatency::cpu00.inst    179872248                       # number of ReadReq MSHR miss ticks (Tick)
system.cpu0.icache.ReadReq.mshrMissLatency::total    179872248                       # number of ReadReq MSHR miss ticks (Tick)
system.cpu0.icache.ReadReq.mshrMissRate::cpu00.inst     0.000720                       # mshr miss rate for ReadReq accesses (Ratio)
system.cpu0.icache.ReadReq.mshrMissRate::total     0.000720                       # mshr miss rate for ReadReq accesses (Ratio)
system.cpu0.icache.ReadReq.avgMshrMissLatency::cpu00.inst 65551.110787                       # average ReadReq mshr miss latency ((Tick/Count))
system.cpu0.icache.ReadReq.avgMshrMissLatency::total 65551.110787                       # average ReadReq mshr miss latency ((Tick/Count))
system.cpu0.icache.power_state.pwrStateResidencyTicks::UNDEFINED  29055348500                       # Cumulative time (in ticks) in various power states (Tick)
system.cpu0.icache.tags.tagsInUse          511.404855                       # Average ticks per tags in use ((Tick/Count))
system.cpu0.icache.tags.totalRefs             3810157                       # Total number of references to valid blocks. (Count)
system.cpu0.icache.tags.sampledRefs              2743                       # Sample count of references to valid blocks. (Count)
system.cpu0.icache.tags.avgRefs           1389.047393                       # Average number of references to valid blocks. ((Count/Count))
system.cpu0.icache.tags.warmupTick              80000                       # The tick when the warmup percentage was hit. (Tick)
system.cpu0.icache.tags.occupancies::cpu00.inst   511.404855                       # Average occupied blocks per tick, per requestor ((Count/Tick))
system.cpu0.icache.tags.avgOccs::cpu00.inst     0.998838                       # Average percentage of cache occupancy ((Ratio/Tick))
system.cpu0.icache.tags.avgOccs::total       0.998838                       # Average percentage of cache occupancy ((Ratio/Tick))
system.cpu0.icache.tags.occupanciesTaskId::1024          511                       # Occupied blocks per task id (Count)
system.cpu0.icache.tags.ageTaskId_1024::0          114                       # Occupied blocks per task id, per block age (Count)
system.cpu0.icache.tags.ageTaskId_1024::1           68                       # Occupied blocks per task id, per block age (Count)
system.cpu0.icache.tags.ageTaskId_1024::4          329                       # Occupied blocks per task id, per block age (Count)
system.cpu0.icache.tags.ratioOccsTaskId::1024     0.998047                       # Ratio of occupied blocks and all blocks, per task id (Ratio)
system.cpu0.icache.tags.tagAccesses           7624501                       # Number of tag accesses (Count)
system.cpu0.icache.tags.dataAccesses          7624501                       # Number of data accesses (Count)
system.cpu0.icache.tags.power_state.pwrStateResidencyTicks::UNDEFINED  29055348500                       # Cumulative time (in ticks) in various power states (Tick)
system.cpu0.iew.idleCycles                          0                       # Number of cycles IEW is idle (Cycle)
system.cpu0.iew.squashCycles                    12687                       # Number of cycles IEW is squashing (Cycle)
system.cpu0.iew.blockCycles                  29503970                       # Number of cycles IEW is blocking (Cycle)
system.cpu0.iew.unblockCycles                 9302778                       # Number of cycles IEW is unblocking (Cycle)
system.cpu0.iew.dispatchedInsts              46297328                       # Number of instructions dispatched to IQ (Count)
system.cpu0.iew.dispSquashedInsts                1120                       # Number of squashed instructions skipped by dispatch (Count)
system.cpu0.iew.dispLoadInsts                 7788529                       # Number of dispatched load instructions (Count)
system.cpu0.iew.dispStoreInsts                1329425                       # Number of dispatched store instructions (Count)
system.cpu0.iew.dispNonSpecInsts                  630                       # Number of dispatched non-speculative instructions (Count)
system.cpu0.iew.iqFullEvents                   255341                       # Number of times the IQ has become full, causing a stall (Count)
system.cpu0.iew.lsqFullEvents                 9032606                       # Number of times the LSQ has become full, causing a stall (Count)
system.cpu0.iew.memOrderViolationEvents           291                       # Number of memory order violations (Count)
system.cpu0.iew.predictedTakenIncorrect          2763                       # Number of branches that were predicted taken incorrectly (Count)
system.cpu0.iew.predictedNotTakenIncorrect         8114                       # Number of branches that were predicted not taken incorrectly (Count)
system.cpu0.iew.branchMispredicts               10877                       # Number of branch mispredicts detected at execute (Count)
system.cpu0.iew.instsToCommit                46127418                       # Cumulative count of insts sent to commit (Count)
system.cpu0.iew.writebackCount               46118423                       # Cumulative count of insts written-back (Count)
system.cpu0.iew.producerInst                 33314260                       # Number of instructions producing a value (Count)
system.cpu0.iew.consumerInst                 55182406                       # Number of instructions consuming a value (Count)
system.cpu0.iew.wbRate                       0.396815                       # Insts written-back per cycle ((Count/Cycle))
system.cpu0.iew.wbFanout                     0.603712                       # Average fanout of values written-back ((Count/Count))
system.cpu0.interrupts.clk_domain.clock          4000                       # Clock period in ticks (Tick)
system.cpu0.itb_walker_cache.blockedCycles::no_mshrs            0                       # number of cycles access was blocked (Cycle)
system.cpu0.itb_walker_cache.blockedCycles::no_targets            0                       # number of cycles access was blocked (Cycle)
system.cpu0.itb_walker_cache.blockedCauses::no_mshrs            0                       # number of times access was blocked (Count)
system.cpu0.itb_walker_cache.blockedCauses::no_targets            0                       # number of times access was blocked (Count)
system.cpu0.itb_walker_cache.avgBlocked::no_mshrs          nan                       # average number of cycles each access was blocked ((Cycle/Count))
system.cpu0.itb_walker_cache.avgBlocked::no_targets          nan                       # average number of cycles each access was blocked ((Cycle/Count))
system.cpu0.itb_walker_cache.replacements            0                       # number of replacements (Count)
system.cpu0.itb_walker_cache.power_state.pwrStateResidencyTicks::UNDEFINED  29055348500                       # Cumulative time (in ticks) in various power states (Tick)
system.cpu0.itb_walker_cache.tags.tagsInUse            0                       # Average ticks per tags in use ((Tick/Count))
[...]
system.membus.pktSize_system.cpu15.dcache.mem_side_port::system.mem_ctrls1.port      4002176                       # Cumulative packet size per connected requestor and responder (Byte)
system.membus.pktSize_system.cpu15.dcache.mem_side_port::system.mem_ctrls2.port      4002112                       # Cumulative packet size per connected requestor and responder (Byte)
system.membus.pktSize_system.cpu15.dcache.mem_side_port::system.mem_ctrls3.port      3998016                       # Cumulative packet size per connected requestor and responder (Byte)
system.membus.pktSize_system.cpu15.dcache.mem_side_port::system.mem_ctrls4.port      3996928                       # Cumulative packet size per connected requestor and responder (Byte)
system.membus.pktSize_system.cpu15.dcache.mem_side_port::system.mem_ctrls5.port      3997888                       # Cumulative packet size per connected requestor and responder (Byte)
system.membus.pktSize_system.cpu15.dcache.mem_side_port::system.mem_ctrls6.port      4003456                       # Cumulative packet size per connected requestor and responder (Byte)
system.membus.pktSize_system.cpu15.dcache.mem_side_port::system.mem_ctrls7.port      4003200                       # Cumulative packet size per connected requestor and responder (Byte)
system.membus.pktSize_system.cpu15.dcache.mem_side_port::total     32007232                       # Cumulative packet size per connected requestor and responder (Byte)
system.membus.pktSize::total                537067776                       # Cumulative packet size per connected requestor and responder (Byte)
system.membus.snoops                             4909                       # Total snoops (Count)
system.membus.snoopTraffic                     299520                       # Total snoop traffic (Byte)
system.membus.snoopFanout::samples            5892539                       # Request fanout histogram (Count)
system.membus.snoopFanout::mean              0.009595                       # Request fanout histogram (Count)
system.membus.snoopFanout::stdev             0.278944                       # Request fanout histogram (Count)
system.membus.snoopFanout::underflows               0      0.00%      0.00% # Request fanout histogram (Count)
system.membus.snoopFanout::0                  5870591     99.63%     99.63% # Request fanout histogram (Count)
system.membus.snoopFanout::1                    17491      0.30%     99.92% # Request fanout histogram (Count)
system.membus.snoopFanout::2                      497      0.01%     99.93% # Request fanout histogram (Count)
system.membus.snoopFanout::3                      400      0.01%     99.94% # Request fanout histogram (Count)
system.membus.snoopFanout::4                      287      0.00%     99.94% # Request fanout histogram (Count)
system.membus.snoopFanout::5                      294      0.00%     99.95% # Request fanout histogram (Count)
system.membus.snoopFanout::6                      251      0.00%     99.95% # Request fanout histogram (Count)
system.membus.snoopFanout::7                      235      0.00%     99.96% # Request fanout histogram (Count)
system.membus.snoopFanout::8                      228      0.00%     99.96% # Request fanout histogram (Count)
system.membus.snoopFanout::9                      231      0.00%     99.97% # Request fanout histogram (Count)
system.membus.snoopFanout::10                     227      0.00%     99.97% # Request fanout histogram (Count)
system.membus.snoopFanout::11                     223      0.00%     99.97% # Request fanout histogram (Count)
system.membus.snoopFanout::12                     219      0.00%     99.98% # Request fanout histogram (Count)
system.membus.snoopFanout::13                     218      0.00%     99.98% # Request fanout histogram (Count)
system.membus.snoopFanout::14                     218      0.00%     99.98% # Request fanout histogram (Count)
system.membus.snoopFanout::15                     921      0.02%    100.00% # Request fanout histogram (Count)
system.membus.snoopFanout::16                       6      0.00%    100.00% # Request fanout histogram (Count)
system.membus.snoopFanout::17                       1      0.00%    100.00% # Request fanout histogram (Count)
system.membus.snoopFanout::18                       1      0.00%    100.00% # Request fanout histogram (Count)
system.membus.snoopFanout::19                       0      0.00%    100.00% # Request fanout histogram (Count)
system.membus.snoopFanout::20                       0      0.00%    100.00% # Request fanout histogram (Count)
system.membus.snoopFanout::21                       0      0.00%    100.00% # Request fanout histogram (Count)
system.membus.snoopFanout::22                       0      0.00%    100.00% # Request fanout histogram (Count)
system.membus.snoopFanout::23                       0      0.00%    100.00% # Request fanout histogram (Count)
system.membus.snoopFanout::24                       0      0.00%    100.00% # Request fanout histogram (Count)
system.membus.snoopFanout::25                       0      0.00%    100.00% # Request fanout histogram (Count)
system.membus.snoopFanout::26                       0      0.00%    100.00% # Request fanout histogram (Count)
system.membus.snoopFanout::27                       0      0.00%    100.00% # Request fanout histogram (Count)
system.membus.snoopFanout::28                       0      0.00%    100.00% # Request fanout histogram (Count)
system.membus.snoopFanout::29                       0      0.00%    100.00% # Request fanout histogram (Count)
system.membus.snoopFanout::30                       0      0.00%    100.00% # Request fanout histogram (Count)
system.membus.snoopFanout::31                       0      0.00%    100.00% # Request fanout histogram (Count)
system.membus.snoopFanout::32                       0      0.00%    100.00% # Request fanout histogram (Count)
system.membus.snoopFanout::33                       0      0.00%    100.00% # Request fanout histogram (Count)
system.membus.snoopFanout::34                       0      0.00%    100.00% # Request fanout histogram (Count)
system.membus.snoopFanout::35                       0      0.00%    100.00% # Request fanout histogram (Count)
system.membus.snoopFanout::36                       0      0.00%    100.00% # Request fanout histogram (Count)
system.membus.snoopFanout::37                       0      0.00%    100.00% # Request fanout histogram (Count)
system.membus.snoopFanout::38                       0      0.00%    100.00% # Request fanout histogram (Count)
system.membus.snoopFanout::39                       0      0.00%    100.00% # Request fanout histogram (Count)
system.membus.snoopFanout::40                       0      0.00%    100.00% # Request fanout histogram (Count)
system.membus.snoopFanout::41                       0      0.00%    100.00% # Request fanout histogram (Count)
system.membus.snoopFanout::42                       0      0.00%    100.00% # Request fanout histogram (Count)
system.membus.snoopFanout::43                       0      0.00%    100.00% # Request fanout histogram (Count)
system.membus.snoopFanout::44                       0      0.00%    100.00% # Request fanout histogram (Count)
system.membus.snoopFanout::45                       0      0.00%    100.00% # Request fanout histogram (Count)
system.membus.snoopFanout::46                       0      0.00%    100.00% # Request fanout histogram (Count)
system.membus.snoopFanout::47                       0      0.00%    100.00% # Request fanout histogram (Count)
system.membus.snoopFanout::48                       0      0.00%    100.00% # Request fanout histogram (Count)
system.membus.snoopFanout::49                       0      0.00%    100.00% # Request fanout histogram (Count)
system.membus.snoopFanout::50                       0      0.00%    100.00% # Request fanout histogram (Count)
system.membus.snoopFanout::51                       0      0.00%    100.00% # Request fanout histogram (Count)
system.membus.snoopFanout::52                       0      0.00%    100.00% # Request fanout histogram (Count)
system.membus.snoopFanout::53                       0      0.00%    100.00% # Request fanout histogram (Count)
system.membus.snoopFanout::54                       0      0.00%    100.00% # Request fanout histogram (Count)
system.membus.snoopFanout::55                       0      0.00%    100.00% # Request fanout histogram (Count)
system.membus.snoopFanout::56                       0      0.00%    100.00% # Request fanout histogram (Count)
system.membus.snoopFanout::57                       0      0.00%    100.00% # Request fanout histogram (Count)
system.membus.snoopFanout::58                       0      0.00%    100.00% # Request fanout histogram (Count)
system.membus.snoopFanout::59                       0      0.00%    100.00% # Request fanout histogram (Count)
system.membus.snoopFanout::60                       0      0.00%    100.00% # Request fanout histogram (Count)
system.membus.snoopFanout::61                       0      0.00%    100.00% # Request fanout histogram (Count)
system.membus.snoopFanout::62                       0      0.00%    100.00% # Request fanout histogram (Count)
system.membus.snoopFanout::63                       0      0.00%    100.00% # Request fanout histogram (Count)
system.membus.snoopFanout::64                       0      0.00%    100.00% # Request fanout histogram (Count)
system.membus.snoopFanout::overflows                0      0.00%    100.00% # Request fanout histogram (Count)
system.membus.snoopFanout::min_value                0                       # Request fanout histogram (Count)
system.membus.snoopFanout::max_value               18                       # Request fanout histogram (Count)
system.membus.snoopFanout::total              5892539                       # Request fanout histogram (Count)
system.membus.power_state.pwrStateResidencyTicks::UNDEFINED  29055348500                       # Cumulative time (in ticks) in various power states (Tick)
system.membus.reqLayer32.occupancy         3204590997                       # Layer occupancy (ticks) (Tick)
system.membus.reqLayer32.utilization              0.1                       # Layer utilization (Ratio)
system.membus.reqLayer33.occupancy         3201369849                       # Layer occupancy (ticks) (Tick)
system.membus.reqLayer33.utilization              0.1                       # Layer utilization (Ratio)
system.membus.reqLayer34.occupancy         3205232079                       # Layer occupancy (ticks) (Tick)
system.membus.reqLayer34.utilization              0.1                       # Layer utilization (Ratio)
system.membus.reqLayer35.occupancy         3205274062                       # Layer occupancy (ticks) (Tick)
system.membus.reqLayer35.utilization              0.1                       # Layer utilization (Ratio)
system.membus.reqLayer36.occupancy         3202742105                       # Layer occupancy (ticks) (Tick)
system.membus.reqLayer36.utilization              0.1                       # Layer utilization (Ratio)
system.membus.reqLayer37.occupancy         3202068973                       # Layer occupancy (ticks) (Tick)
system.membus.reqLayer37.utilization              0.1                       # Layer utilization (Ratio)
system.membus.reqLayer38.occupancy         3203838609                       # Layer occupancy (ticks) (Tick)
system.membus.reqLayer38.utilization              0.1                       # Layer utilization (Ratio)
system.membus.reqLayer39.occupancy         3202627299                       # Layer occupancy (ticks) (Tick)
system.membus.reqLayer39.utilization              0.1                       # Layer utilization (Ratio)
system.membus.respLayer1.occupancy           13803493                       # Layer occupancy (ticks) (Tick)
system.membus.respLayer1.utilization              0.0                       # Layer utilization (Ratio)
system.membus.respLayer11.occupancy            688999                       # Layer occupancy (ticks) (Tick)
system.membus.respLayer11.utilization             0.0                       # Layer utilization (Ratio)
system.membus.respLayer12.occupancy        1779375285                       # Layer occupancy (ticks) (Tick)
system.membus.respLayer12.utilization             0.1                       # Layer utilization (Ratio)
system.membus.respLayer16.occupancy            649749                       # Layer occupancy (ticks) (Tick)
system.membus.respLayer16.utilization             0.0                       # Layer utilization (Ratio)
system.membus.respLayer17.occupancy        1780816109                       # Layer occupancy (ticks) (Tick)
system.membus.respLayer17.utilization             0.1                       # Layer utilization (Ratio)
system.membus.respLayer2.occupancy         3745962454                       # Layer occupancy (ticks) (Tick)
system.membus.respLayer2.utilization              0.1                       # Layer utilization (Ratio)
system.membus.respLayer21.occupancy            338500                       # Layer occupancy (ticks) (Tick)
system.membus.respLayer21.utilization             0.0                       # Layer utilization (Ratio)
system.membus.respLayer22.occupancy        1779036140                       # Layer occupancy (ticks) (Tick)
system.membus.respLayer22.utilization             0.1                       # Layer utilization (Ratio)
system.membus.respLayer26.occupancy            364750                       # Layer occupancy (ticks) (Tick)
system.membus.respLayer26.utilization             0.0                       # Layer utilization (Ratio)
system.membus.respLayer27.occupancy        1780219928                       # Layer occupancy (ticks) (Tick)
system.membus.respLayer27.utilization             0.1                       # Layer utilization (Ratio)
system.membus.respLayer31.occupancy            323000                       # Layer occupancy (ticks) (Tick)
system.membus.respLayer31.utilization             0.0                       # Layer utilization (Ratio)
system.membus.respLayer32.occupancy        1781487592                       # Layer occupancy (ticks) (Tick)
system.membus.respLayer32.utilization             0.1                       # Layer utilization (Ratio)
system.membus.respLayer36.occupancy            360750                       # Layer occupancy (ticks) (Tick)
system.membus.respLayer36.utilization             0.0                       # Layer utilization (Ratio)
system.membus.respLayer37.occupancy        1779646674                       # Layer occupancy (ticks) (Tick)
system.membus.respLayer37.utilization             0.1                       # Layer utilization (Ratio)
system.membus.respLayer41.occupancy            361250                       # Layer occupancy (ticks) (Tick)
system.membus.respLayer41.utilization             0.0                       # Layer utilization (Ratio)
system.membus.respLayer42.occupancy        1780312544                       # Layer occupancy (ticks) (Tick)
system.membus.respLayer42.utilization             0.1                       # Layer utilization (Ratio)
system.membus.respLayer46.occupancy            323251                       # Layer occupancy (ticks) (Tick)
system.membus.respLayer46.utilization             0.0                       # Layer utilization (Ratio)
system.membus.respLayer47.occupancy        1780603808                       # Layer occupancy (ticks) (Tick)
system.membus.respLayer47.utilization             0.1                       # Layer utilization (Ratio)
system.membus.respLayer51.occupancy            323750                       # Layer occupancy (ticks) (Tick)
system.membus.respLayer51.utilization             0.0                       # Layer utilization (Ratio)
system.membus.respLayer52.occupancy        1779125880                       # Layer occupancy (ticks) (Tick)
system.membus.respLayer52.utilization             0.1                       # Layer utilization (Ratio)
system.membus.respLayer56.occupancy            338750                       # Layer occupancy (ticks) (Tick)
system.membus.respLayer56.utilization             0.0                       # Layer utilization (Ratio)
system.membus.respLayer57.occupancy        1781486680                       # Layer occupancy (ticks) (Tick)
system.membus.respLayer57.utilization             0.1                       # Layer utilization (Ratio)
system.membus.respLayer6.occupancy             720500                       # Layer occupancy (ticks) (Tick)
system.membus.respLayer6.utilization              0.0                       # Layer utilization (Ratio)
system.membus.respLayer61.occupancy            340250                       # Layer occupancy (ticks) (Tick)
system.membus.respLayer61.utilization             0.0                       # Layer utilization (Ratio)
system.membus.respLayer62.occupancy        1779421595                       # Layer occupancy (ticks) (Tick)
system.membus.respLayer62.utilization             0.1                       # Layer utilization (Ratio)
system.membus.respLayer66.occupancy            339500                       # Layer occupancy (ticks) (Tick)
system.membus.respLayer66.utilization             0.0                       # Layer utilization (Ratio)
system.membus.respLayer67.occupancy        1779432905                       # Layer occupancy (ticks) (Tick)
system.membus.respLayer67.utilization             0.1                       # Layer utilization (Ratio)
system.membus.respLayer7.occupancy         1779667203                       # Layer occupancy (ticks) (Tick)
system.membus.respLayer7.utilization              0.1                       # Layer utilization (Ratio)
system.membus.respLayer71.occupancy            323500                       # Layer occupancy (ticks) (Tick)
system.membus.respLayer71.utilization             0.0                       # Layer utilization (Ratio)
system.membus.respLayer72.occupancy        1779237468                       # Layer occupancy (ticks) (Tick)
system.membus.respLayer72.utilization             0.1                       # Layer utilization (Ratio)
system.membus.respLayer76.occupancy            350500                       # Layer occupancy (ticks) (Tick)
system.membus.respLayer76.utilization             0.0                       # Layer utilization (Ratio)
system.membus.respLayer77.occupancy        1781418064                       # Layer occupancy (ticks) (Tick)
system.membus.respLayer77.utilization             0.1                       # Layer utilization (Ratio)
system.membus.snoop_filter.totRequests       11764853                       # Total number of requests made to the snoop filter. (Count)
system.membus.snoop_filter.hitSingleRequests      5872239                       # Number of requests hitting in the snoop filter with a single holder of the requested data. (Count)
system.membus.snoop_filter.hitMultiRequests        22476                       # Number of requests hitting in the snoop filter with multiple (>1) holders of the requested data. (Count)
system.membus.snoop_filter.totSnoops                0                       # Total number of snoops made to the snoop filter. (Count)
system.membus.snoop_filter.hitSingleSnoops            0                       # Number of snoops hitting in the snoop filter with a single holder of the requested data. (Count)
system.membus.snoop_filter.hitMultiSnoops            0                       # Number of snoops hitting in the snoop filter with multiple (>1) holders of the requested data. (Count)
system.voltage_domain.voltage                       1                       # Voltage in Volts (Volt)
system.workload.inst.arm                            0                       # number of arm instructions executed (Count)
system.workload.inst.quiesce                        0                       # number of quiesce instructions executed (Count)

---------- End Simulation Statistics   ----------
