Global frequency set at 1000000000000 ticks per second
gem5 Simulator System.  https://www.gem5.org
gem5 is copyrighted software; use the --copyright option for details.

gem5 version 22.0.0.2
gem5 compiled Aug  8 2022 00:57:17
gem5 started Aug 22 2022 01:40:30
gem5 executing on codespaces-4933b6, pid 5230
command line: ../gem5/build/X86/gem5.opt --outdir=./result/HBM_compare/test5/4channel se.py --cpu-type X86TimingSimpleCPU -n 1 --cpu-clock 4GHz --mem-type HBM_2000_4H_1x64 --mem-channels 4 --caches --l2cache --cmd ./workload/stream_strcpy.1M

info: Standard input is not a terminal, disabling listeners.
**** REAL SIMULATION ****
-------------------------------------------------------------
STREAM version $Revision: 5.10 $
-------------------------------------------------------------
This system uses 8 bytes per array element.
-------------------------------------------------------------
Array size = 1000000 (elements), Offset = 0 (elements)
Memory per array = 7.6 MiB (= 0.0 GiB).
Total memory required = 22.9 MiB (= 0.0 GiB).
Each kernel will be executed 4 times.
 The *best* time for each kernel (excluding the first iteration)
 will be used to compute the reported bandwidth.
-------------------------------------------------------------
Your clock granularity/precision appears to be 1 microseconds.
Each test below will take on the order of 15180 microseconds.
   (= 15180 clock ticks)
Increase the size of the arrays if this shows that
you are not getting at least 20 clock ticks per test.
-------------------------------------------------------------
WARNING -- The above is only a rough guideline.
For best results, please be sure you know the
precision of your system timer.
-------------------------------------------------------------
Function    Best Rate MB/s  Avg time     Min time     Max time
Copy:            1219.9     0.013117     0.013116     0.013117
Scale:            640.3     0.025025     0.024987     0.025080
Add:              669.0     0.035888     0.035876     0.035894
Triad:            662.5     0.036227     0.036226     0.036229
-------------------------------------------------------------
Solution Validates: avg error less than 1.000000e-13 on all three arrays
-------------------------------------------------------------
Exiting @ tick 540536567750 because exiting with last active thread context
