
---------- Begin Simulation Statistics ----------
simSeconds                                   0.245393                       # Number of seconds simulated (Second)
simTicks                                 245392661250                       # Number of ticks simulated (Tick)
finalTick                                245392661250                       # Number of ticks from beginning of simulation (restored from checkpoints and never reset) (Tick)
simFreq                                  1000000000000                       # The number of ticks per simulated second ((Tick/Second))
hostSeconds                                   1712.29                       # Real time elapsed on the host (Second)
hostTickRate                                143312964                       # The number of ticks simulated per host second (ticks/s) ((Tick/Second))
hostMemory                                    7680000                       # Number of bytes of host memory used (Byte)
simInsts                                     90030046                       # Number of instructions simulated (Count)
simOps                                      167531660                       # Number of ops (including micro ops) simulated (Count)
hostInstRate                                    52579                       # Simulator instruction rate (inst/s) ((Count/Second))
hostOpRate                                      97841                       # Simulator op (including micro ops) rate (op/s) ((Count/Second))
system.clk_domain.clock                          1000                       # Clock period in ticks (Tick)
system.cpu.numCycles                        981570646                       # Number of cpu cycles simulated (Cycle)
system.cpu.numWorkItemsStarted                      0                       # Number of work items this cpu started (Count)
system.cpu.numWorkItemsCompleted                    0                       # Number of work items this cpu completed (Count)
system.cpu.instsAdded                       359008612                       # Number of instructions added to the IQ (excludes non-spec) (Count)
system.cpu.nonSpecInstsAdded                       76                       # Number of non-speculative instructions added to the IQ (Count)
system.cpu.instsIssued                      359736033                       # Number of instructions issued (Count)
system.cpu.squashedInstsIssued                   3078                       # Number of squashed instructions issued (Count)
system.cpu.squashedInstsExamined            191477022                       # Number of squashed instructions iterated over during squash; mainly for profiling (Count)
system.cpu.squashedOperandsExamined            476026                       # Number of squashed operands that are examined and possibly removed from graph (Count)
system.cpu.squashedNonSpecRemoved                  54                       # Number of squashed non-spec instructions that were removed (Count)
system.cpu.numIssuedDist::samples           981293143                       # Number of insts issued each cycle (Count)
system.cpu.numIssuedDist::mean               0.366594                       # Number of insts issued each cycle (Count)
system.cpu.numIssuedDist::stdev              1.315508                       # Number of insts issued each cycle (Count)
system.cpu.numIssuedDist::underflows                0      0.00%      0.00% # Number of insts issued each cycle (Count)
system.cpu.numIssuedDist::0                 880775948     89.76%     89.76% # Number of insts issued each cycle (Count)
system.cpu.numIssuedDist::1                  27366419      2.79%     92.55% # Number of insts issued each cycle (Count)
system.cpu.numIssuedDist::2                  14580126      1.49%     94.03% # Number of insts issued each cycle (Count)
system.cpu.numIssuedDist::3                  11536718      1.18%     95.21% # Number of insts issued each cycle (Count)
system.cpu.numIssuedDist::4                  12198126      1.24%     96.45% # Number of insts issued each cycle (Count)
system.cpu.numIssuedDist::5                  14239806      1.45%     97.90% # Number of insts issued each cycle (Count)
system.cpu.numIssuedDist::6                   6821084      0.70%     98.60% # Number of insts issued each cycle (Count)
system.cpu.numIssuedDist::7                   2518158      0.26%     98.85% # Number of insts issued each cycle (Count)
system.cpu.numIssuedDist::8                  11256758      1.15%    100.00% # Number of insts issued each cycle (Count)
system.cpu.numIssuedDist::overflows                 0      0.00%    100.00% # Number of insts issued each cycle (Count)
system.cpu.numIssuedDist::min_value                 0                       # Number of insts issued each cycle (Count)
system.cpu.numIssuedDist::max_value                 8                       # Number of insts issued each cycle (Count)
system.cpu.numIssuedDist::total             981293143                       # Number of insts issued each cycle (Count)
system.cpu.statFuBusy::No_OpClass                   0      0.00%      0.00% # attempts to use FU when none available (Count)
system.cpu.statFuBusy::IntAlu                   11950      0.05%      0.05% # attempts to use FU when none available (Count)
system.cpu.statFuBusy::IntMult                      0      0.00%      0.05% # attempts to use FU when none available (Count)
system.cpu.statFuBusy::IntDiv                       0      0.00%      0.05% # attempts to use FU when none available (Count)
system.cpu.statFuBusy::FloatAdd                     0      0.00%      0.05% # attempts to use FU when none available (Count)
system.cpu.statFuBusy::FloatCmp                     0      0.00%      0.05% # attempts to use FU when none available (Count)
system.cpu.statFuBusy::FloatCvt                     0      0.00%      0.05% # attempts to use FU when none available (Count)
system.cpu.statFuBusy::FloatMult                    0      0.00%      0.05% # attempts to use FU when none available (Count)
system.cpu.statFuBusy::FloatMultAcc                 0      0.00%      0.05% # attempts to use FU when none available (Count)
system.cpu.statFuBusy::FloatDiv                     0      0.00%      0.05% # attempts to use FU when none available (Count)
system.cpu.statFuBusy::FloatMisc                    0      0.00%      0.05% # attempts to use FU when none available (Count)
system.cpu.statFuBusy::FloatSqrt                    0      0.00%      0.05% # attempts to use FU when none available (Count)
system.cpu.statFuBusy::SimdAdd                      0      0.00%      0.05% # attempts to use FU when none available (Count)
system.cpu.statFuBusy::SimdAddAcc                   0      0.00%      0.05% # attempts to use FU when none available (Count)
system.cpu.statFuBusy::SimdAlu                     74      0.00%      0.05% # attempts to use FU when none available (Count)
system.cpu.statFuBusy::SimdCmp                      0      0.00%      0.05% # attempts to use FU when none available (Count)
system.cpu.statFuBusy::SimdCvt                     30      0.00%      0.05% # attempts to use FU when none available (Count)
system.cpu.statFuBusy::SimdMisc                    17      0.00%      0.05% # attempts to use FU when none available (Count)
system.cpu.statFuBusy::SimdMult                     0      0.00%      0.05% # attempts to use FU when none available (Count)
system.cpu.statFuBusy::SimdMultAcc                  0      0.00%      0.05% # attempts to use FU when none available (Count)
system.cpu.statFuBusy::SimdShift                    1      0.00%      0.05% # attempts to use FU when none available (Count)
system.cpu.statFuBusy::SimdShiftAcc                 0      0.00%      0.05% # attempts to use FU when none available (Count)
system.cpu.statFuBusy::SimdDiv                      0      0.00%      0.05% # attempts to use FU when none available (Count)
system.cpu.statFuBusy::SimdSqrt                     0      0.00%      0.05% # attempts to use FU when none available (Count)
system.cpu.statFuBusy::SimdFloatAdd           1124987      4.86%      4.91% # attempts to use FU when none available (Count)
system.cpu.statFuBusy::SimdFloatAlu                 0      0.00%      4.91% # attempts to use FU when none available (Count)
system.cpu.statFuBusy::SimdFloatCmp                 0      0.00%      4.91% # attempts to use FU when none available (Count)
system.cpu.statFuBusy::SimdFloatCvt                 0      0.00%      4.91% # attempts to use FU when none available (Count)
system.cpu.statFuBusy::SimdFloatDiv                 0      0.00%      4.91% # attempts to use FU when none available (Count)
system.cpu.statFuBusy::SimdFloatMisc                0      0.00%      4.91% # attempts to use FU when none available (Count)
system.cpu.statFuBusy::SimdFloatMult           499990      2.16%      7.08% # attempts to use FU when none available (Count)
system.cpu.statFuBusy::SimdFloatMultAcc             0      0.00%      7.08% # attempts to use FU when none available (Count)
system.cpu.statFuBusy::SimdFloatSqrt                0      0.00%      7.08% # attempts to use FU when none available (Count)
system.cpu.statFuBusy::SimdReduceAdd                0      0.00%      7.08% # attempts to use FU when none available (Count)
system.cpu.statFuBusy::SimdReduceAlu                0      0.00%      7.08% # attempts to use FU when none available (Count)
system.cpu.statFuBusy::SimdReduceCmp                0      0.00%      7.08% # attempts to use FU when none available (Count)
system.cpu.statFuBusy::SimdFloatReduceAdd            0      0.00%      7.08% # attempts to use FU when none available (Count)
system.cpu.statFuBusy::SimdFloatReduceCmp            0      0.00%      7.08% # attempts to use FU when none available (Count)
system.cpu.statFuBusy::SimdAes                      0      0.00%      7.08% # attempts to use FU when none available (Count)
system.cpu.statFuBusy::SimdAesMix                   0      0.00%      7.08% # attempts to use FU when none available (Count)
system.cpu.statFuBusy::SimdSha1Hash                 0      0.00%      7.08% # attempts to use FU when none available (Count)
system.cpu.statFuBusy::SimdSha1Hash2                0      0.00%      7.08% # attempts to use FU when none available (Count)
system.cpu.statFuBusy::SimdSha256Hash               0      0.00%      7.08% # attempts to use FU when none available (Count)
system.cpu.statFuBusy::SimdSha256Hash2              0      0.00%      7.08% # attempts to use FU when none available (Count)
system.cpu.statFuBusy::SimdShaSigma2                0      0.00%      7.08% # attempts to use FU when none available (Count)
system.cpu.statFuBusy::SimdShaSigma3                0      0.00%      7.08% # attempts to use FU when none available (Count)
system.cpu.statFuBusy::SimdPredAlu                  0      0.00%      7.08% # attempts to use FU when none available (Count)
system.cpu.statFuBusy::MemRead                2000773      8.65%     15.72% # attempts to use FU when none available (Count)
system.cpu.statFuBusy::MemWrite               6000222     25.93%     41.65% # attempts to use FU when none available (Count)
system.cpu.statFuBusy::FloatMemRead          11500119     49.70%     91.36% # attempts to use FU when none available (Count)
system.cpu.statFuBusy::FloatMemWrite          2000098      8.64%    100.00% # attempts to use FU when none available (Count)
system.cpu.statFuBusy::IprAccess                    0      0.00%    100.00% # attempts to use FU when none available (Count)
system.cpu.statFuBusy::InstPrefetch                 0      0.00%    100.00% # attempts to use FU when none available (Count)
system.cpu.statIssuedInstType_0::No_OpClass     22020010      6.12%      6.12% # Number of instructions issued per FU type, per thread (Count)
system.cpu.statIssuedInstType_0::IntAlu     126658965     35.21%     41.33% # Number of instructions issued per FU type, per thread (Count)
system.cpu.statIssuedInstType_0::IntMult          222      0.00%     41.33% # Number of instructions issued per FU type, per thread (Count)
system.cpu.statIssuedInstType_0::IntDiv          1765      0.00%     41.33% # Number of instructions issued per FU type, per thread (Count)
system.cpu.statIssuedInstType_0::FloatAdd     12005551      3.34%     44.67% # Number of instructions issued per FU type, per thread (Count)
system.cpu.statIssuedInstType_0::FloatCmp            0      0.00%     44.67% # Number of instructions issued per FU type, per thread (Count)
system.cpu.statIssuedInstType_0::FloatCvt           32      0.00%     44.67% # Number of instructions issued per FU type, per thread (Count)
system.cpu.statIssuedInstType_0::FloatMult            0      0.00%     44.67% # Number of instructions issued per FU type, per thread (Count)
system.cpu.statIssuedInstType_0::FloatMultAcc            0      0.00%     44.67% # Number of instructions issued per FU type, per thread (Count)
system.cpu.statIssuedInstType_0::FloatDiv            0      0.00%     44.67% # Number of instructions issued per FU type, per thread (Count)
system.cpu.statIssuedInstType_0::FloatMisc            0      0.00%     44.67% # Number of instructions issued per FU type, per thread (Count)
system.cpu.statIssuedInstType_0::FloatSqrt            0      0.00%     44.67% # Number of instructions issued per FU type, per thread (Count)
system.cpu.statIssuedInstType_0::SimdAdd          410      0.00%     44.67% # Number of instructions issued per FU type, per thread (Count)
system.cpu.statIssuedInstType_0::SimdAddAcc            0      0.00%     44.67% # Number of instructions issued per FU type, per thread (Count)
system.cpu.statIssuedInstType_0::SimdAlu        24074      0.01%     44.67% # Number of instructions issued per FU type, per thread (Count)
system.cpu.statIssuedInstType_0::SimdCmp            8      0.00%     44.67% # Number of instructions issued per FU type, per thread (Count)
system.cpu.statIssuedInstType_0::SimdCvt         1527      0.00%     44.68% # Number of instructions issued per FU type, per thread (Count)
system.cpu.statIssuedInstType_0::SimdMisc         1721      0.00%     44.68% # Number of instructions issued per FU type, per thread (Count)
system.cpu.statIssuedInstType_0::SimdMult            0      0.00%     44.68% # Number of instructions issued per FU type, per thread (Count)
system.cpu.statIssuedInstType_0::SimdMultAcc            0      0.00%     44.68% # Number of instructions issued per FU type, per thread (Count)
system.cpu.statIssuedInstType_0::SimdShift          301      0.00%     44.68% # Number of instructions issued per FU type, per thread (Count)
system.cpu.statIssuedInstType_0::SimdShiftAcc            0      0.00%     44.68% # Number of instructions issued per FU type, per thread (Count)
system.cpu.statIssuedInstType_0::SimdDiv            0      0.00%     44.68% # Number of instructions issued per FU type, per thread (Count)
system.cpu.statIssuedInstType_0::SimdSqrt            0      0.00%     44.68% # Number of instructions issued per FU type, per thread (Count)
system.cpu.statIssuedInstType_0::SimdFloatAdd     15009289      4.17%     48.85% # Number of instructions issued per FU type, per thread (Count)
system.cpu.statIssuedInstType_0::SimdFloatAlu            0      0.00%     48.85% # Number of instructions issued per FU type, per thread (Count)
system.cpu.statIssuedInstType_0::SimdFloatCmp           26      0.00%     48.85% # Number of instructions issued per FU type, per thread (Count)
system.cpu.statIssuedInstType_0::SimdFloatCvt      3013764      0.84%     49.69% # Number of instructions issued per FU type, per thread (Count)
system.cpu.statIssuedInstType_0::SimdFloatDiv           17      0.00%     49.69% # Number of instructions issued per FU type, per thread (Count)
system.cpu.statIssuedInstType_0::SimdFloatMisc            0      0.00%     49.69% # Number of instructions issued per FU type, per thread (Count)
system.cpu.statIssuedInstType_0::SimdFloatMult      8004746      2.23%     51.91% # Number of instructions issued per FU type, per thread (Count)
system.cpu.statIssuedInstType_0::SimdFloatMultAcc            0      0.00%     51.91% # Number of instructions issued per FU type, per thread (Count)
system.cpu.statIssuedInstType_0::SimdFloatSqrt            0      0.00%     51.91% # Number of instructions issued per FU type, per thread (Count)
system.cpu.statIssuedInstType_0::SimdReduceAdd            0      0.00%     51.91% # Number of instructions issued per FU type, per thread (Count)
system.cpu.statIssuedInstType_0::SimdReduceAlu            0      0.00%     51.91% # Number of instructions issued per FU type, per thread (Count)
system.cpu.statIssuedInstType_0::SimdReduceCmp            0      0.00%     51.91% # Number of instructions issued per FU type, per thread (Count)
system.cpu.statIssuedInstType_0::SimdFloatReduceAdd            0      0.00%     51.91% # Number of instructions issued per FU type, per thread (Count)
system.cpu.statIssuedInstType_0::SimdFloatReduceCmp            0      0.00%     51.91% # Number of instructions issued per FU type, per thread (Count)
system.cpu.statIssuedInstType_0::SimdAes            0      0.00%     51.91% # Number of instructions issued per FU type, per thread (Count)
system.cpu.statIssuedInstType_0::SimdAesMix            0      0.00%     51.91% # Number of instructions issued per FU type, per thread (Count)
system.cpu.statIssuedInstType_0::SimdSha1Hash            0      0.00%     51.91% # Number of instructions issued per FU type, per thread (Count)
system.cpu.statIssuedInstType_0::SimdSha1Hash2            0      0.00%     51.91% # Number of instructions issued per FU type, per thread (Count)
system.cpu.statIssuedInstType_0::SimdSha256Hash            0      0.00%     51.91% # Number of instructions issued per FU type, per thread (Count)
system.cpu.statIssuedInstType_0::SimdSha256Hash2            0      0.00%     51.91% # Number of instructions issued per FU type, per thread (Count)
system.cpu.statIssuedInstType_0::SimdShaSigma2            0      0.00%     51.91% # Number of instructions issued per FU type, per thread (Count)
system.cpu.statIssuedInstType_0::SimdShaSigma3            0      0.00%     51.91% # Number of instructions issued per FU type, per thread (Count)
system.cpu.statIssuedInstType_0::SimdPredAlu            0      0.00%     51.91% # Number of instructions issued per FU type, per thread (Count)
system.cpu.statIssuedInstType_0::MemRead     11111775      3.09%     55.00% # Number of instructions issued per FU type, per thread (Count)
system.cpu.statIssuedInstType_0::MemWrite     25046420      6.96%     61.96% # Number of instructions issued per FU type, per thread (Count)
system.cpu.statIssuedInstType_0::FloatMemRead     75833830     21.08%     83.04% # Number of instructions issued per FU type, per thread (Count)
system.cpu.statIssuedInstType_0::FloatMemWrite     61001580     16.96%    100.00% # Number of instructions issued per FU type, per thread (Count)
system.cpu.statIssuedInstType_0::IprAccess            0      0.00%    100.00% # Number of instructions issued per FU type, per thread (Count)
system.cpu.statIssuedInstType_0::InstPrefetch            0      0.00%    100.00% # Number of instructions issued per FU type, per thread (Count)
system.cpu.statIssuedInstType_0::total      359736033                       # Number of instructions issued per FU type, per thread (Count)
system.cpu.issueRate                         0.366490                       # Inst issue rate ((Count/Cycle))
system.cpu.fuBusy                            23138261                       # FU busy when requested (Count)
system.cpu.fuBusyRate                        0.064320                       # FU busy rate (busy events/executed inst) ((Count/Count))
system.cpu.intInstQueueReads               1342967793                       # Number of integer instruction queue reads (Count)
system.cpu.intInstQueueWrites               286324054                       # Number of integer instruction queue writes (Count)
system.cpu.intInstQueueWakeupAccesses       154802973                       # Number of integer instruction queue wakeup accesses (Count)
system.cpu.fpInstQueueReads                 380938755                       # Number of floating instruction queue reads (Count)
system.cpu.fpInstQueueWrites                264161815                       # Number of floating instruction queue writes (Count)
system.cpu.fpInstQueueWakeupAccesses        182093373                       # Number of floating instruction queue wakeup accesses (Count)
system.cpu.vecInstQueueReads                        0                       # Number of vector instruction queue reads (Count)
system.cpu.vecInstQueueWrites                       0                       # Number of vector instruction queue writes (Count)
system.cpu.vecInstQueueWakeupAccesses               0                       # Number of vector instruction queue wakeup accesses (Count)
system.cpu.intAluAccesses                   162822357                       # Number of integer alu accesses (Count)
system.cpu.fpAluAccesses                    198031927                       # Number of floating point alu accesses (Count)
system.cpu.vecAluAccesses                           0                       # Number of vector alu accesses (Count)
system.cpu.numInsts                         359715314                       # Number of executed instructions (Count)
system.cpu.numLoadInsts                      86939754                       # Number of load instructions executed (Count)
system.cpu.numSquashedInsts                     20719                       # Number of squashed instructions skipped in execute (Count)
system.cpu.numSwp                                   0                       # Number of swp insts executed (Count)
system.cpu.numNop                                   0                       # Number of nop insts executed (Count)
system.cpu.numRefs                          172987084                       # Number of memory reference insts executed (Count)
system.cpu.numBranches                       14017099                       # Number of branches executed (Count)
system.cpu.numStoreInsts                     86047330                       # Number of stores executed (Count)
system.cpu.numRate                           0.366469                       # Inst execution rate ((Count/Cycle))
system.cpu.timesIdled                            1270                       # Number of times that the entire CPU went into an idle state and unscheduled itself (Count)
system.cpu.idleCycles                          277503                       # Total number of cycles that the CPU has spent unscheduled due to idling (Cycle)
system.cpu.committedInsts                    90030046                       # Number of Instructions Simulated (Count)
system.cpu.committedOps                     167531660                       # Number of Ops (including micro ops) Simulated (Count)
system.cpu.cpi                              10.902701                       # CPI: Cycles Per Instruction ((Cycle/Count))
system.cpu.totalCpi                         10.902701                       # CPI: Total CPI of All Threads ((Cycle/Count))
system.cpu.ipc                               0.091720                       # IPC: Instructions Per Cycle ((Count/Cycle))
system.cpu.totalIpc                          0.091720                       # IPC: Total IPC of All Threads ((Count/Cycle))
system.cpu.intRegfileReads                  285266017                       # Number of integer regfile reads (Count)
system.cpu.intRegfileWrites                  93763462                       # Number of integer regfile writes (Count)
system.cpu.fpRegfileReads                   152139699                       # Number of floating regfile reads (Count)
system.cpu.fpRegfileWrites                  118086721                       # Number of floating regfile writes (Count)
system.cpu.ccRegfileReads                    75954607                       # number of cc regfile reads (Count)
system.cpu.ccRegfileWrites                   79888429                       # number of cc regfile writes (Count)
system.cpu.miscRegfileReads                 205033388                       # number of misc regfile reads (Count)
system.cpu.miscRegfileWrites                       18                       # number of misc regfile writes (Count)
system.cpu.MemDepUnit__0.insertedLoads       86144792                       # Number of loads inserted to the mem dependence unit. (Count)
system.cpu.MemDepUnit__0.insertedStores      86051211                       # Number of stores inserted to the mem dependence unit. (Count)
system.cpu.MemDepUnit__0.conflictingLoads      1000917                       # Number of conflicting loads. (Count)
system.cpu.MemDepUnit__0.conflictingStores      1001027                       # Number of conflicting stores. (Count)
system.cpu.MemDepUnit__1.insertedLoads              0                       # Number of loads inserted to the mem dependence unit. (Count)
system.cpu.MemDepUnit__1.insertedStores             0                       # Number of stores inserted to the mem dependence unit. (Count)
system.cpu.MemDepUnit__1.conflictingLoads            0                       # Number of conflicting loads. (Count)
system.cpu.MemDepUnit__1.conflictingStores            0                       # Number of conflicting stores. (Count)
system.cpu.MemDepUnit__2.insertedLoads              0                       # Number of loads inserted to the mem dependence unit. (Count)
system.cpu.MemDepUnit__2.insertedStores             0                       # Number of stores inserted to the mem dependence unit. (Count)
system.cpu.MemDepUnit__2.conflictingLoads            0                       # Number of conflicting loads. (Count)
system.cpu.MemDepUnit__2.conflictingStores            0                       # Number of conflicting stores. (Count)
system.cpu.MemDepUnit__3.insertedLoads              0                       # Number of loads inserted to the mem dependence unit. (Count)
system.cpu.MemDepUnit__3.insertedStores             0                       # Number of stores inserted to the mem dependence unit. (Count)
system.cpu.MemDepUnit__3.conflictingLoads            0                       # Number of conflicting loads. (Count)
system.cpu.MemDepUnit__3.conflictingStores            0                       # Number of conflicting stores. (Count)
system.cpu.branchPred.lookups                16056205                       # Number of BP lookups (Count)
system.cpu.branchPred.condPredicted          16004224                       # Number of conditional branches predicted (Count)
system.cpu.branchPred.condIncorrect              6167                       # Number of conditional branches incorrect (Count)
system.cpu.branchPred.BTBLookups             12961849                       # Number of BTB lookups (Count)
system.cpu.branchPred.BTBHits                12959361                       # Number of BTB hits (Count)
system.cpu.branchPred.BTBHitRatio            0.999808                       # BTB Hit Ratio (Ratio)
system.cpu.branchPred.RASUsed                   16315                       # Number of times the RAS was used to get a target. (Count)
system.cpu.branchPred.RASIncorrect                 12                       # Number of incorrect RAS predictions. (Count)
system.cpu.branchPred.indirectLookups            7687                       # Number of indirect predictor lookups. (Count)
system.cpu.branchPred.indirectHits               5332                       # Number of indirect target hits. (Count)
system.cpu.branchPred.indirectMisses             2355                       # Number of indirect misses. (Count)
system.cpu.branchPred.indirectMispredicted          413                       # Number of mispredicted indirect branches. (Count)
system.cpu.commit.commitSquashedInsts       159874426                       # The number of squashed insts skipped by commit (Count)
system.cpu.commit.commitNonSpecStalls              22                       # The number of times commit has been forced to stall to communicate backwards (Count)
system.cpu.commit.branchMispredicts              5914                       # The number of times a branch was mispredicted (Count)
system.cpu.commit.numCommittedDist::samples    960239185                       # Number of insts commited each cycle (Count)
system.cpu.commit.numCommittedDist::mean     0.174469                       # Number of insts commited each cycle (Count)
system.cpu.commit.numCommittedDist::stdev     1.000672                       # Number of insts commited each cycle (Count)
system.cpu.commit.numCommittedDist::underflows            0      0.00%      0.00% # Number of insts commited each cycle (Count)
system.cpu.commit.numCommittedDist::0       916697474     95.47%     95.47% # Number of insts commited each cycle (Count)
system.cpu.commit.numCommittedDist::1        13690383      1.43%     96.89% # Number of insts commited each cycle (Count)
system.cpu.commit.numCommittedDist::2         6349222      0.66%     97.55% # Number of insts commited each cycle (Count)
system.cpu.commit.numCommittedDist::3         3556229      0.37%     97.92% # Number of insts commited each cycle (Count)
system.cpu.commit.numCommittedDist::4         5689319      0.59%     98.52% # Number of insts commited each cycle (Count)
system.cpu.commit.numCommittedDist::5         1706253      0.18%     98.69% # Number of insts commited each cycle (Count)
system.cpu.commit.numCommittedDist::6          506324      0.05%     98.75% # Number of insts commited each cycle (Count)
system.cpu.commit.numCommittedDist::7          204187      0.02%     98.77% # Number of insts commited each cycle (Count)
system.cpu.commit.numCommittedDist::8        11839794      1.23%    100.00% # Number of insts commited each cycle (Count)
system.cpu.commit.numCommittedDist::overflows            0      0.00%    100.00% # Number of insts commited each cycle (Count)
system.cpu.commit.numCommittedDist::min_value            0                       # Number of insts commited each cycle (Count)
system.cpu.commit.numCommittedDist::max_value            8                       # Number of insts commited each cycle (Count)
system.cpu.commit.numCommittedDist::total    960239185                       # Number of insts commited each cycle (Count)
system.cpu.commit.instsCommitted             90030046                       # Number of instructions committed (Count)
system.cpu.commit.opsCommitted              167531660                       # Number of ops (including micro ops) committed (Count)
system.cpu.commit.memRefs                    58114080                       # Number of memory references committed (Count)
system.cpu.commit.loads                      36081797                       # Number of loads committed (Count)
system.cpu.commit.amos                              0                       # Number of atomic instructions committed (Count)
system.cpu.commit.membars                           0                       # Number of memory barriers committed (Count)
system.cpu.commit.branches                    8976487                       # Number of branches committed (Count)
system.cpu.commit.vectorInstructions                0                       # Number of committed Vector instructions. (Count)
system.cpu.commit.floating                  100050253                       # Number of committed floating point instructions. (Count)
system.cpu.commit.integer                   121486761                       # Number of committed integer instructions. (Count)
system.cpu.commit.functionCalls                  6410                       # Number of function calls committed. (Count)
system.cpu.commit.committedInstType_0::No_OpClass         9512      0.01%      0.01% # Class of committed instruction (Count)
system.cpu.commit.committedInstType_0::IntAlu     71375824     42.60%     42.61% # Class of committed instruction (Count)
system.cpu.commit.committedInstType_0::IntMult          205      0.00%     42.61% # Class of committed instruction (Count)
system.cpu.commit.committedInstType_0::IntDiv         1619      0.00%     42.61% # Class of committed instruction (Count)
system.cpu.commit.committedInstType_0::FloatAdd     12002794      7.16%     49.78% # Class of committed instruction (Count)
system.cpu.commit.committedInstType_0::FloatCmp            0      0.00%     49.78% # Class of committed instruction (Count)
system.cpu.commit.committedInstType_0::FloatCvt           32      0.00%     49.78% # Class of committed instruction (Count)
system.cpu.commit.committedInstType_0::FloatMult            0      0.00%     49.78% # Class of committed instruction (Count)
system.cpu.commit.committedInstType_0::FloatMultAcc            0      0.00%     49.78% # Class of committed instruction (Count)
system.cpu.commit.committedInstType_0::FloatDiv            0      0.00%     49.78% # Class of committed instruction (Count)
system.cpu.commit.committedInstType_0::FloatMisc            0      0.00%     49.78% # Class of committed instruction (Count)
system.cpu.commit.committedInstType_0::FloatSqrt            0      0.00%     49.78% # Class of committed instruction (Count)
system.cpu.commit.committedInstType_0::SimdAdd          340      0.00%     49.78% # Class of committed instruction (Count)
system.cpu.commit.committedInstType_0::SimdAddAcc            0      0.00%     49.78% # Class of committed instruction (Count)
system.cpu.commit.committedInstType_0::SimdAlu        10487      0.01%     49.78% # Class of committed instruction (Count)
system.cpu.commit.committedInstType_0::SimdCmp            6      0.00%     49.78% # Class of committed instruction (Count)
system.cpu.commit.committedInstType_0::SimdCvt         1234      0.00%     49.78% # Class of committed instruction (Count)
system.cpu.commit.committedInstType_0::SimdMisc         1575      0.00%     49.78% # Class of committed instruction (Count)
system.cpu.commit.committedInstType_0::SimdMult            0      0.00%     49.78% # Class of committed instruction (Count)
system.cpu.commit.committedInstType_0::SimdMultAcc            0      0.00%     49.78% # Class of committed instruction (Count)
system.cpu.commit.committedInstType_0::SimdShift           99      0.00%     49.78% # Class of committed instruction (Count)
system.cpu.commit.committedInstType_0::SimdShiftAcc            0      0.00%     49.78% # Class of committed instruction (Count)
system.cpu.commit.committedInstType_0::SimdDiv            0      0.00%     49.78% # Class of committed instruction (Count)
system.cpu.commit.committedInstType_0::SimdSqrt            0      0.00%     49.78% # Class of committed instruction (Count)
system.cpu.commit.committedInstType_0::SimdFloatAdd     15004590      8.96%     58.74% # Class of committed instruction (Count)
system.cpu.commit.committedInstType_0::SimdFloatAlu            0      0.00%     58.74% # Class of committed instruction (Count)
system.cpu.commit.committedInstType_0::SimdFloatCmp           24      0.00%     58.74% # Class of committed instruction (Count)
system.cpu.commit.committedInstType_0::SimdFloatCvt      3006898      1.79%     60.53% # Class of committed instruction (Count)
system.cpu.commit.committedInstType_0::SimdFloatDiv           15      0.00%     60.53% # Class of committed instruction (Count)
system.cpu.commit.committedInstType_0::SimdFloatMisc            0      0.00%     60.53% # Class of committed instruction (Count)
system.cpu.commit.committedInstType_0::SimdFloatMult      8002326      4.78%     65.31% # Class of committed instruction (Count)
system.cpu.commit.committedInstType_0::SimdFloatMultAcc            0      0.00%     65.31% # Class of committed instruction (Count)
system.cpu.commit.committedInstType_0::SimdFloatSqrt            0      0.00%     65.31% # Class of committed instruction (Count)
system.cpu.commit.committedInstType_0::SimdReduceAdd            0      0.00%     65.31% # Class of committed instruction (Count)
system.cpu.commit.committedInstType_0::SimdReduceAlu            0      0.00%     65.31% # Class of committed instruction (Count)
system.cpu.commit.committedInstType_0::SimdReduceCmp            0      0.00%     65.31% # Class of committed instruction (Count)
system.cpu.commit.committedInstType_0::SimdFloatReduceAdd            0      0.00%     65.31% # Class of committed instruction (Count)
system.cpu.commit.committedInstType_0::SimdFloatReduceCmp            0      0.00%     65.31% # Class of committed instruction (Count)
system.cpu.commit.committedInstType_0::SimdAes            0      0.00%     65.31% # Class of committed instruction (Count)
system.cpu.commit.committedInstType_0::SimdAesMix            0      0.00%     65.31% # Class of committed instruction (Count)
system.cpu.commit.committedInstType_0::SimdSha1Hash            0      0.00%     65.31% # Class of committed instruction (Count)
system.cpu.commit.committedInstType_0::SimdSha1Hash2            0      0.00%     65.31% # Class of committed instruction (Count)
system.cpu.commit.committedInstType_0::SimdSha256Hash            0      0.00%     65.31% # Class of committed instruction (Count)
system.cpu.commit.committedInstType_0::SimdSha256Hash2            0      0.00%     65.31% # Class of committed instruction (Count)
system.cpu.commit.committedInstType_0::SimdShaSigma2            0      0.00%     65.31% # Class of committed instruction (Count)
system.cpu.commit.committedInstType_0::SimdShaSigma3            0      0.00%     65.31% # Class of committed instruction (Count)
system.cpu.commit.committedInstType_0::SimdPredAlu            0      0.00%     65.31% # Class of committed instruction (Count)
system.cpu.commit.committedInstType_0::MemRead      1068675      0.64%     65.95% # Class of committed instruction (Count)
system.cpu.commit.committedInstType_0::MemWrite      3030615      1.81%     67.76% # Class of committed instruction (Count)
system.cpu.commit.committedInstType_0::FloatMemRead     35013122     20.90%     88.66% # Class of committed instruction (Count)
system.cpu.commit.committedInstType_0::FloatMemWrite     19001668     11.34%    100.00% # Class of committed instruction (Count)
system.cpu.commit.committedInstType_0::IprAccess            0      0.00%    100.00% # Class of committed instruction (Count)
system.cpu.commit.committedInstType_0::InstPrefetch            0      0.00%    100.00% # Class of committed instruction (Count)
system.cpu.commit.committedInstType_0::total    167531660                       # Class of committed instruction (Count)
system.cpu.commit.commitEligibleSamples      11839794                       # number cycles where commit BW limit reached (Cycle)
system.cpu.dcache.demandHits::cpu.data       70946177                       # number of demand (read+write) hits (Count)
system.cpu.dcache.demandHits::total          70946177                       # number of demand (read+write) hits (Count)
system.cpu.dcache.overallHits::cpu.data      81437349                       # number of overall hits (Count)
system.cpu.dcache.overallHits::total         81437349                       # number of overall hits (Count)
system.cpu.dcache.demandMisses::cpu.data     24209536                       # number of demand (read+write) misses (Count)
system.cpu.dcache.demandMisses::total        24209536                       # number of demand (read+write) misses (Count)
system.cpu.dcache.overallMisses::cpu.data     24718222                       # number of overall misses (Count)
system.cpu.dcache.overallMisses::total       24718222                       # number of overall misses (Count)
system.cpu.dcache.demandMissLatency::cpu.data 675477955749                       # number of demand (read+write) miss ticks (Tick)
system.cpu.dcache.demandMissLatency::total 675477955749                       # number of demand (read+write) miss ticks (Tick)
system.cpu.dcache.overallMissLatency::cpu.data 675477955749                       # number of overall miss ticks (Tick)
system.cpu.dcache.overallMissLatency::total 675477955749                       # number of overall miss ticks (Tick)
system.cpu.dcache.demandAccesses::cpu.data     95155713                       # number of demand (read+write) accesses (Count)
system.cpu.dcache.demandAccesses::total      95155713                       # number of demand (read+write) accesses (Count)
system.cpu.dcache.overallAccesses::cpu.data    106155571                       # number of overall (read+write) accesses (Count)
system.cpu.dcache.overallAccesses::total    106155571                       # number of overall (read+write) accesses (Count)
system.cpu.dcache.demandMissRate::cpu.data     0.254420                       # miss rate for demand accesses (Ratio)
system.cpu.dcache.demandMissRate::total      0.254420                       # miss rate for demand accesses (Ratio)
system.cpu.dcache.overallMissRate::cpu.data     0.232849                       # miss rate for overall accesses (Ratio)
system.cpu.dcache.overallMissRate::total     0.232849                       # miss rate for overall accesses (Ratio)
system.cpu.dcache.demandAvgMissLatency::cpu.data 27901.317718                       # average overall miss latency in ticks ((Tick/Count))
system.cpu.dcache.demandAvgMissLatency::total 27901.317718                       # average overall miss latency in ticks ((Tick/Count))
system.cpu.dcache.overallAvgMissLatency::cpu.data 27327.125541                       # average overall miss latency ((Tick/Count))
system.cpu.dcache.overallAvgMissLatency::total 27327.125541                       # average overall miss latency ((Tick/Count))
system.cpu.dcache.blockedCycles::no_mshrs     26264577                       # number of cycles access was blocked (Cycle)
system.cpu.dcache.blockedCycles::no_targets            0                       # number of cycles access was blocked (Cycle)
system.cpu.dcache.blockedCauses::no_mshrs      1820712                       # number of times access was blocked (Count)
system.cpu.dcache.blockedCauses::no_targets            0                       # number of times access was blocked (Count)
system.cpu.dcache.avgBlocked::no_mshrs      14.425443                       # average number of cycles each access was blocked ((Cycle/Count))
system.cpu.dcache.avgBlocked::no_targets          nan                       # average number of cycles each access was blocked ((Cycle/Count))
system.cpu.dcache.writebacks::writebacks      2500915                       # number of writebacks (Count)
system.cpu.dcache.writebacks::total           2500915                       # number of writebacks (Count)
system.cpu.dcache.demandMshrHits::cpu.data     18831115                       # number of demand (read+write) MSHR hits (Count)
system.cpu.dcache.demandMshrHits::total      18831115                       # number of demand (read+write) MSHR hits (Count)
system.cpu.dcache.overallMshrHits::cpu.data     18831115                       # number of overall MSHR hits (Count)
system.cpu.dcache.overallMshrHits::total     18831115                       # number of overall MSHR hits (Count)
system.cpu.dcache.demandMshrMisses::cpu.data      5378421                       # number of demand (read+write) MSHR misses (Count)
system.cpu.dcache.demandMshrMisses::total      5378421                       # number of demand (read+write) MSHR misses (Count)
system.cpu.dcache.overallMshrMisses::cpu.data      5878428                       # number of overall MSHR misses (Count)
system.cpu.dcache.overallMshrMisses::total      5878428                       # number of overall MSHR misses (Count)
system.cpu.dcache.demandMshrMissLatency::cpu.data 455271275499                       # number of demand (read+write) MSHR miss ticks (Tick)
system.cpu.dcache.demandMshrMissLatency::total 455271275499                       # number of demand (read+write) MSHR miss ticks (Tick)
system.cpu.dcache.overallMshrMissLatency::cpu.data 497326739749                       # number of overall MSHR miss ticks (Tick)
system.cpu.dcache.overallMshrMissLatency::total 497326739749                       # number of overall MSHR miss ticks (Tick)
system.cpu.dcache.demandMshrMissRate::cpu.data     0.056522                       # mshr miss ratio for demand accesses (Ratio)
system.cpu.dcache.demandMshrMissRate::total     0.056522                       # mshr miss ratio for demand accesses (Ratio)
system.cpu.dcache.overallMshrMissRate::cpu.data     0.055376                       # mshr miss ratio for overall accesses (Ratio)
system.cpu.dcache.overallMshrMissRate::total     0.055376                       # mshr miss ratio for overall accesses (Ratio)
system.cpu.dcache.demandAvgMshrMissLatency::cpu.data 84647.757306                       # average overall mshr miss latency ((Tick/Count))
system.cpu.dcache.demandAvgMshrMissLatency::total 84647.757306                       # average overall mshr miss latency ((Tick/Count))
system.cpu.dcache.overallAvgMshrMissLatency::cpu.data 84601.995593                       # average overall mshr miss latency ((Tick/Count))
system.cpu.dcache.overallAvgMshrMissLatency::total 84601.995593                       # average overall mshr miss latency ((Tick/Count))
system.cpu.dcache.replacements                5877399                       # number of replacements (Count)
system.cpu.dcache.ReadReq.hits::cpu.data     53289561                       # number of ReadReq hits (Count)
system.cpu.dcache.ReadReq.hits::total        53289561                       # number of ReadReq hits (Count)
system.cpu.dcache.ReadReq.misses::cpu.data     21833831                       # number of ReadReq misses (Count)
system.cpu.dcache.ReadReq.misses::total      21833831                       # number of ReadReq misses (Count)
system.cpu.dcache.ReadReq.missLatency::cpu.data 480146817500                       # number of ReadReq miss ticks (Tick)
system.cpu.dcache.ReadReq.missLatency::total 480146817500                       # number of ReadReq miss ticks (Tick)
system.cpu.dcache.ReadReq.accesses::cpu.data     75123392                       # number of ReadReq accesses(hits+misses) (Count)
system.cpu.dcache.ReadReq.accesses::total     75123392                       # number of ReadReq accesses(hits+misses) (Count)
system.cpu.dcache.ReadReq.missRate::cpu.data     0.290640                       # miss rate for ReadReq accesses (Ratio)
system.cpu.dcache.ReadReq.missRate::total     0.290640                       # miss rate for ReadReq accesses (Ratio)
system.cpu.dcache.ReadReq.avgMissLatency::cpu.data 21990.956031                       # average ReadReq miss latency ((Tick/Count))
system.cpu.dcache.ReadReq.avgMissLatency::total 21990.956031                       # average ReadReq miss latency ((Tick/Count))
system.cpu.dcache.ReadReq.mshrHits::cpu.data     18831102                       # number of ReadReq MSHR hits (Count)
system.cpu.dcache.ReadReq.mshrHits::total     18831102                       # number of ReadReq MSHR hits (Count)
system.cpu.dcache.ReadReq.mshrMisses::cpu.data      3002729                       # number of ReadReq MSHR misses (Count)
system.cpu.dcache.ReadReq.mshrMisses::total      3002729                       # number of ReadReq MSHR misses (Count)
system.cpu.dcache.ReadReq.mshrMissLatency::cpu.data 261128380750                       # number of ReadReq MSHR miss ticks (Tick)
system.cpu.dcache.ReadReq.mshrMissLatency::total 261128380750                       # number of ReadReq MSHR miss ticks (Tick)
system.cpu.dcache.ReadReq.mshrMissRate::cpu.data     0.039971                       # mshr miss rate for ReadReq accesses (Ratio)
system.cpu.dcache.ReadReq.mshrMissRate::total     0.039971                       # mshr miss rate for ReadReq accesses (Ratio)
system.cpu.dcache.ReadReq.avgMshrMissLatency::cpu.data 86963.685617                       # average ReadReq mshr miss latency ((Tick/Count))
system.cpu.dcache.ReadReq.avgMshrMissLatency::total 86963.685617                       # average ReadReq mshr miss latency ((Tick/Count))
system.cpu.dcache.SoftPFReq.hits::cpu.data     10491172                       # number of SoftPFReq hits (Count)
system.cpu.dcache.SoftPFReq.hits::total      10491172                       # number of SoftPFReq hits (Count)
system.cpu.dcache.SoftPFReq.misses::cpu.data       508686                       # number of SoftPFReq misses (Count)
system.cpu.dcache.SoftPFReq.misses::total       508686                       # number of SoftPFReq misses (Count)
system.cpu.dcache.SoftPFReq.accesses::cpu.data     10999858                       # number of SoftPFReq accesses(hits+misses) (Count)
system.cpu.dcache.SoftPFReq.accesses::total     10999858                       # number of SoftPFReq accesses(hits+misses) (Count)
system.cpu.dcache.SoftPFReq.missRate::cpu.data     0.046245                       # miss rate for SoftPFReq accesses (Ratio)
system.cpu.dcache.SoftPFReq.missRate::total     0.046245                       # miss rate for SoftPFReq accesses (Ratio)
system.cpu.dcache.SoftPFReq.mshrMisses::cpu.data       500007                       # number of SoftPFReq MSHR misses (Count)
system.cpu.dcache.SoftPFReq.mshrMisses::total       500007                       # number of SoftPFReq MSHR misses (Count)
system.cpu.dcache.SoftPFReq.mshrMissLatency::cpu.data  42055464250                       # number of SoftPFReq MSHR miss ticks (Tick)
system.cpu.dcache.SoftPFReq.mshrMissLatency::total  42055464250                       # number of SoftPFReq MSHR miss ticks (Tick)
system.cpu.dcache.SoftPFReq.mshrMissRate::cpu.data     0.045456                       # mshr miss rate for SoftPFReq accesses (Ratio)
system.cpu.dcache.SoftPFReq.mshrMissRate::total     0.045456                       # mshr miss rate for SoftPFReq accesses (Ratio)
system.cpu.dcache.SoftPFReq.avgMshrMissLatency::cpu.data 84109.750963                       # average SoftPFReq mshr miss latency ((Tick/Count))
system.cpu.dcache.SoftPFReq.avgMshrMissLatency::total 84109.750963                       # average SoftPFReq mshr miss latency ((Tick/Count))
system.cpu.dcache.WriteReq.hits::cpu.data     17656616                       # number of WriteReq hits (Count)
system.cpu.dcache.WriteReq.hits::total       17656616                       # number of WriteReq hits (Count)
system.cpu.dcache.WriteReq.misses::cpu.data      2375705                       # number of WriteReq misses (Count)
system.cpu.dcache.WriteReq.misses::total      2375705                       # number of WriteReq misses (Count)
system.cpu.dcache.WriteReq.missLatency::cpu.data 195331138249                       # number of WriteReq miss ticks (Tick)
system.cpu.dcache.WriteReq.missLatency::total 195331138249                       # number of WriteReq miss ticks (Tick)
system.cpu.dcache.WriteReq.accesses::cpu.data     20032321                       # number of WriteReq accesses(hits+misses) (Count)
system.cpu.dcache.WriteReq.accesses::total     20032321                       # number of WriteReq accesses(hits+misses) (Count)
system.cpu.dcache.WriteReq.missRate::cpu.data     0.118594                       # miss rate for WriteReq accesses (Ratio)
system.cpu.dcache.WriteReq.missRate::total     0.118594                       # miss rate for WriteReq accesses (Ratio)
system.cpu.dcache.WriteReq.avgMissLatency::cpu.data 82220.283347                       # average WriteReq miss latency ((Tick/Count))
system.cpu.dcache.WriteReq.avgMissLatency::total 82220.283347                       # average WriteReq miss latency ((Tick/Count))
system.cpu.dcache.WriteReq.mshrHits::cpu.data           13                       # number of WriteReq MSHR hits (Count)
system.cpu.dcache.WriteReq.mshrHits::total           13                       # number of WriteReq MSHR hits (Count)
system.cpu.dcache.WriteReq.mshrMisses::cpu.data      2375692                       # number of WriteReq MSHR misses (Count)
system.cpu.dcache.WriteReq.mshrMisses::total      2375692                       # number of WriteReq MSHR misses (Count)
system.cpu.dcache.WriteReq.mshrMissLatency::cpu.data 194142894749                       # number of WriteReq MSHR miss ticks (Tick)
system.cpu.dcache.WriteReq.mshrMissLatency::total 194142894749                       # number of WriteReq MSHR miss ticks (Tick)
system.cpu.dcache.WriteReq.mshrMissRate::cpu.data     0.118593                       # mshr miss rate for WriteReq accesses (Ratio)
system.cpu.dcache.WriteReq.mshrMissRate::total     0.118593                       # mshr miss rate for WriteReq accesses (Ratio)
system.cpu.dcache.WriteReq.avgMshrMissLatency::cpu.data 81720.565944                       # average WriteReq mshr miss latency ((Tick/Count))
system.cpu.dcache.WriteReq.avgMshrMissLatency::total 81720.565944                       # average WriteReq mshr miss latency ((Tick/Count))
system.cpu.dcache.power_state.pwrStateResidencyTicks::UNDEFINED 245392661250                       # Cumulative time (in ticks) in various power states (Tick)
system.cpu.dcache.tags.tagsInUse          1023.790704                       # Average ticks per tags in use ((Tick/Count))
system.cpu.dcache.tags.totalRefs             87315778                       # Total number of references to valid blocks. (Count)
system.cpu.dcache.tags.sampledRefs            5878423                       # Sample count of references to valid blocks. (Count)
system.cpu.dcache.tags.avgRefs              14.853606                       # Average number of references to valid blocks. ((Count/Count))
system.cpu.dcache.tags.warmupTick              170250                       # The tick when the warmup percentage was hit. (Tick)
system.cpu.dcache.tags.occupancies::cpu.data  1023.790704                       # Average occupied blocks per tick, per requestor ((Count/Tick))
system.cpu.dcache.tags.avgOccs::cpu.data     0.999796                       # Average percentage of cache occupancy ((Ratio/Tick))
system.cpu.dcache.tags.avgOccs::total        0.999796                       # Average percentage of cache occupancy ((Ratio/Tick))
system.cpu.dcache.tags.occupanciesTaskId::1024         1024                       # Occupied blocks per task id (Count)
system.cpu.dcache.tags.ageTaskId_1024::0          109                       # Occupied blocks per task id, per block age (Count)
system.cpu.dcache.tags.ageTaskId_1024::1          914                       # Occupied blocks per task id, per block age (Count)
system.cpu.dcache.tags.ageTaskId_1024::4            1                       # Occupied blocks per task id, per block age (Count)
system.cpu.dcache.tags.ratioOccsTaskId::1024            1                       # Ratio of occupied blocks and all blocks, per task id (Ratio)
system.cpu.dcache.tags.tagAccesses          218189565                       # Number of tag accesses (Count)
system.cpu.dcache.tags.dataAccesses         218189565                       # Number of data accesses (Count)
system.cpu.dcache.tags.power_state.pwrStateResidencyTicks::UNDEFINED 245392661250                       # Cumulative time (in ticks) in various power states (Tick)
system.cpu.decode.idleCycles                 11691254                       # Number of cycles decode is idle (Cycle)
system.cpu.decode.blockedCycles             915761076                       # Number of cycles decode is blocked (Cycle)
system.cpu.decode.runCycles                  39144024                       # Number of cycles decode is running (Cycle)
system.cpu.decode.unblockCycles              12688288                       # Number of cycles decode is unblocking (Cycle)
system.cpu.decode.squashCycles                2008501                       # Number of cycles decode is squashing (Cycle)
system.cpu.decode.branchResolved             11457218                       # Number of times decode resolved a branch (Count)
system.cpu.decode.branchMispred                   736                       # Number of times decode detected a branch misprediction (Count)
system.cpu.decode.decodedInsts              381605404                       # Number of instructions handled by decode (Count)
system.cpu.decode.squashedInsts                  3549                       # Number of squashed instructions handled by decode (Count)
system.cpu.dtb_walker_cache.blockedCycles::no_mshrs            0                       # number of cycles access was blocked (Cycle)
system.cpu.dtb_walker_cache.blockedCycles::no_targets            0                       # number of cycles access was blocked (Cycle)
system.cpu.dtb_walker_cache.blockedCauses::no_mshrs            0                       # number of times access was blocked (Count)
system.cpu.dtb_walker_cache.blockedCauses::no_targets            0                       # number of times access was blocked (Count)
system.cpu.dtb_walker_cache.avgBlocked::no_mshrs          nan                       # average number of cycles each access was blocked ((Cycle/Count))
system.cpu.dtb_walker_cache.avgBlocked::no_targets          nan                       # average number of cycles each access was blocked ((Cycle/Count))
system.cpu.dtb_walker_cache.replacements            0                       # number of replacements (Count)
system.cpu.dtb_walker_cache.power_state.pwrStateResidencyTicks::UNDEFINED 245392661250                       # Cumulative time (in ticks) in various power states (Tick)
system.cpu.dtb_walker_cache.tags.tagsInUse            0                       # Average ticks per tags in use ((Tick/Count))
system.cpu.dtb_walker_cache.tags.totalRefs            0                       # Total number of references to valid blocks. (Count)
system.cpu.dtb_walker_cache.tags.sampledRefs            0                       # Sample count of references to valid blocks. (Count)
system.cpu.dtb_walker_cache.tags.avgRefs          nan                       # Average number of references to valid blocks. ((Count/Count))
system.cpu.dtb_walker_cache.tags.warmupTick            0                       # The tick when the warmup percentage was hit. (Tick)
system.cpu.dtb_walker_cache.tags.tagAccesses            0                       # Number of tag accesses (Count)
system.cpu.dtb_walker_cache.tags.dataAccesses            0                       # Number of data accesses (Count)
system.cpu.dtb_walker_cache.tags.power_state.pwrStateResidencyTicks::UNDEFINED 245392661250                       # Cumulative time (in ticks) in various power states (Tick)
system.cpu.fetch.icacheStallCycles           23599166                       # Number of cycles fetch is stalled on an Icache miss (Cycle)
system.cpu.fetch.insts                      203369336                       # Number of instructions fetch has processed (Count)
system.cpu.fetch.branches                    16056205                       # Number of branches that fetch encountered (Count)
system.cpu.fetch.predictedBranches           12981008                       # Number of branches that fetch has predicted taken (Count)
system.cpu.fetch.cycles                     955680666                       # Number of cycles fetch has run and was not squashing or blocked (Cycle)
system.cpu.fetch.squashCycles                 4018460                       # Number of cycles fetch has spent squashing (Cycle)
system.cpu.fetch.miscStallCycles                  518                       # Number of cycles fetch has spent waiting on interrupts, or bad addresses, or out of MSHRs (Cycle)
system.cpu.fetch.pendingTrapStallCycles          3530                       # Number of stall cycles due to pending traps (Cycle)
system.cpu.fetch.icacheWaitRetryStallCycles           33                       # Number of stall cycles due to full MSHR (Cycle)
system.cpu.fetch.cacheLines                  23510141                       # Number of cache lines fetched (Count)
system.cpu.fetch.icacheSquashes                  4237                       # Number of outstanding Icache misses that were squashed (Count)
system.cpu.fetch.nisnDist::samples          981293143                       # Number of instructions fetched each cycle (Total) (Count)
system.cpu.fetch.nisnDist::mean              0.461819                       # Number of instructions fetched each cycle (Total) (Count)
system.cpu.fetch.nisnDist::stdev             1.747717                       # Number of instructions fetched each cycle (Total) (Count)
system.cpu.fetch.nisnDist::underflows               0      0.00%      0.00% # Number of instructions fetched each cycle (Total) (Count)
system.cpu.fetch.nisnDist::0                906114958     92.34%     92.34% # Number of instructions fetched each cycle (Total) (Count)
system.cpu.fetch.nisnDist::1                  5880179      0.60%     92.94% # Number of instructions fetched each cycle (Total) (Count)
system.cpu.fetch.nisnDist::2                  5286132      0.54%     93.48% # Number of instructions fetched each cycle (Total) (Count)
system.cpu.fetch.nisnDist::3                  1953344      0.20%     93.68% # Number of instructions fetched each cycle (Total) (Count)
system.cpu.fetch.nisnDist::4                 12781198      1.30%     94.98% # Number of instructions fetched each cycle (Total) (Count)
system.cpu.fetch.nisnDist::5                  2517764      0.26%     95.23% # Number of instructions fetched each cycle (Total) (Count)
system.cpu.fetch.nisnDist::6                  2919979      0.30%     95.53% # Number of instructions fetched each cycle (Total) (Count)
system.cpu.fetch.nisnDist::7                  1082726      0.11%     95.64% # Number of instructions fetched each cycle (Total) (Count)
system.cpu.fetch.nisnDist::8                 42756863      4.36%    100.00% # Number of instructions fetched each cycle (Total) (Count)
system.cpu.fetch.nisnDist::overflows                0      0.00%    100.00% # Number of instructions fetched each cycle (Total) (Count)
system.cpu.fetch.nisnDist::min_value                0                       # Number of instructions fetched each cycle (Total) (Count)
system.cpu.fetch.nisnDist::max_value                8                       # Number of instructions fetched each cycle (Total) (Count)
system.cpu.fetch.nisnDist::total            981293143                       # Number of instructions fetched each cycle (Total) (Count)
system.cpu.fetch.branchRate                  0.016358                       # Number of branch fetches per cycle (Ratio)
system.cpu.fetch.rate                        0.207188                       # Number of inst fetches per cycle ((Count/Cycle))
system.cpu.icache.demandHits::cpu.inst       23507556                       # number of demand (read+write) hits (Count)
system.cpu.icache.demandHits::total          23507556                       # number of demand (read+write) hits (Count)
system.cpu.icache.overallHits::cpu.inst      23507556                       # number of overall hits (Count)
system.cpu.icache.overallHits::total         23507556                       # number of overall hits (Count)
system.cpu.icache.demandMisses::cpu.inst         2585                       # number of demand (read+write) misses (Count)
system.cpu.icache.demandMisses::total            2585                       # number of demand (read+write) misses (Count)
system.cpu.icache.overallMisses::cpu.inst         2585                       # number of overall misses (Count)
system.cpu.icache.overallMisses::total           2585                       # number of overall misses (Count)
system.cpu.icache.demandMissLatency::cpu.inst    168824999                       # number of demand (read+write) miss ticks (Tick)
system.cpu.icache.demandMissLatency::total    168824999                       # number of demand (read+write) miss ticks (Tick)
system.cpu.icache.overallMissLatency::cpu.inst    168824999                       # number of overall miss ticks (Tick)
system.cpu.icache.overallMissLatency::total    168824999                       # number of overall miss ticks (Tick)
system.cpu.icache.demandAccesses::cpu.inst     23510141                       # number of demand (read+write) accesses (Count)
system.cpu.icache.demandAccesses::total      23510141                       # number of demand (read+write) accesses (Count)
system.cpu.icache.overallAccesses::cpu.inst     23510141                       # number of overall (read+write) accesses (Count)
system.cpu.icache.overallAccesses::total     23510141                       # number of overall (read+write) accesses (Count)
system.cpu.icache.demandMissRate::cpu.inst     0.000110                       # miss rate for demand accesses (Ratio)
system.cpu.icache.demandMissRate::total      0.000110                       # miss rate for demand accesses (Ratio)
system.cpu.icache.overallMissRate::cpu.inst     0.000110                       # miss rate for overall accesses (Ratio)
system.cpu.icache.overallMissRate::total     0.000110                       # miss rate for overall accesses (Ratio)
system.cpu.icache.demandAvgMissLatency::cpu.inst 65309.477369                       # average overall miss latency in ticks ((Tick/Count))
system.cpu.icache.demandAvgMissLatency::total 65309.477369                       # average overall miss latency in ticks ((Tick/Count))
system.cpu.icache.overallAvgMissLatency::cpu.inst 65309.477369                       # average overall miss latency ((Tick/Count))
system.cpu.icache.overallAvgMissLatency::total 65309.477369                       # average overall miss latency ((Tick/Count))
system.cpu.icache.blockedCycles::no_mshrs          676                       # number of cycles access was blocked (Cycle)
system.cpu.icache.blockedCycles::no_targets            0                       # number of cycles access was blocked (Cycle)
system.cpu.icache.blockedCauses::no_mshrs            7                       # number of times access was blocked (Count)
system.cpu.icache.blockedCauses::no_targets            0                       # number of times access was blocked (Count)
system.cpu.icache.avgBlocked::no_mshrs      96.571429                       # average number of cycles each access was blocked ((Cycle/Count))
system.cpu.icache.avgBlocked::no_targets          nan                       # average number of cycles each access was blocked ((Cycle/Count))
system.cpu.icache.writebacks::writebacks         1533                       # number of writebacks (Count)
system.cpu.icache.writebacks::total              1533                       # number of writebacks (Count)
system.cpu.icache.demandMshrHits::cpu.inst          535                       # number of demand (read+write) MSHR hits (Count)
system.cpu.icache.demandMshrHits::total           535                       # number of demand (read+write) MSHR hits (Count)
system.cpu.icache.overallMshrHits::cpu.inst          535                       # number of overall MSHR hits (Count)
system.cpu.icache.overallMshrHits::total          535                       # number of overall MSHR hits (Count)
system.cpu.icache.demandMshrMisses::cpu.inst         2050                       # number of demand (read+write) MSHR misses (Count)
system.cpu.icache.demandMshrMisses::total         2050                       # number of demand (read+write) MSHR misses (Count)
system.cpu.icache.overallMshrMisses::cpu.inst         2050                       # number of overall MSHR misses (Count)
system.cpu.icache.overallMshrMisses::total         2050                       # number of overall MSHR misses (Count)
system.cpu.icache.demandMshrMissLatency::cpu.inst    131886499                       # number of demand (read+write) MSHR miss ticks (Tick)
system.cpu.icache.demandMshrMissLatency::total    131886499                       # number of demand (read+write) MSHR miss ticks (Tick)
system.cpu.icache.overallMshrMissLatency::cpu.inst    131886499                       # number of overall MSHR miss ticks (Tick)
system.cpu.icache.overallMshrMissLatency::total    131886499                       # number of overall MSHR miss ticks (Tick)
system.cpu.icache.demandMshrMissRate::cpu.inst     0.000087                       # mshr miss ratio for demand accesses (Ratio)
system.cpu.icache.demandMshrMissRate::total     0.000087                       # mshr miss ratio for demand accesses (Ratio)
system.cpu.icache.overallMshrMissRate::cpu.inst     0.000087                       # mshr miss ratio for overall accesses (Ratio)
system.cpu.icache.overallMshrMissRate::total     0.000087                       # mshr miss ratio for overall accesses (Ratio)
system.cpu.icache.demandAvgMshrMissLatency::cpu.inst 64334.877561                       # average overall mshr miss latency ((Tick/Count))
system.cpu.icache.demandAvgMshrMissLatency::total 64334.877561                       # average overall mshr miss latency ((Tick/Count))
system.cpu.icache.overallAvgMshrMissLatency::cpu.inst 64334.877561                       # average overall mshr miss latency ((Tick/Count))
system.cpu.icache.overallAvgMshrMissLatency::total 64334.877561                       # average overall mshr miss latency ((Tick/Count))
system.cpu.icache.replacements                   1533                       # number of replacements (Count)
system.cpu.icache.ReadReq.hits::cpu.inst     23507556                       # number of ReadReq hits (Count)
system.cpu.icache.ReadReq.hits::total        23507556                       # number of ReadReq hits (Count)
system.cpu.icache.ReadReq.misses::cpu.inst         2585                       # number of ReadReq misses (Count)
system.cpu.icache.ReadReq.misses::total          2585                       # number of ReadReq misses (Count)
system.cpu.icache.ReadReq.missLatency::cpu.inst    168824999                       # number of ReadReq miss ticks (Tick)
system.cpu.icache.ReadReq.missLatency::total    168824999                       # number of ReadReq miss ticks (Tick)
system.cpu.icache.ReadReq.accesses::cpu.inst     23510141                       # number of ReadReq accesses(hits+misses) (Count)
system.cpu.icache.ReadReq.accesses::total     23510141                       # number of ReadReq accesses(hits+misses) (Count)
system.cpu.icache.ReadReq.missRate::cpu.inst     0.000110                       # miss rate for ReadReq accesses (Ratio)
system.cpu.icache.ReadReq.missRate::total     0.000110                       # miss rate for ReadReq accesses (Ratio)
system.cpu.icache.ReadReq.avgMissLatency::cpu.inst 65309.477369                       # average ReadReq miss latency ((Tick/Count))
system.cpu.icache.ReadReq.avgMissLatency::total 65309.477369                       # average ReadReq miss latency ((Tick/Count))
system.cpu.icache.ReadReq.mshrHits::cpu.inst          535                       # number of ReadReq MSHR hits (Count)
system.cpu.icache.ReadReq.mshrHits::total          535                       # number of ReadReq MSHR hits (Count)
system.cpu.icache.ReadReq.mshrMisses::cpu.inst         2050                       # number of ReadReq MSHR misses (Count)
system.cpu.icache.ReadReq.mshrMisses::total         2050                       # number of ReadReq MSHR misses (Count)
system.cpu.icache.ReadReq.mshrMissLatency::cpu.inst    131886499                       # number of ReadReq MSHR miss ticks (Tick)
system.cpu.icache.ReadReq.mshrMissLatency::total    131886499                       # number of ReadReq MSHR miss ticks (Tick)
system.cpu.icache.ReadReq.mshrMissRate::cpu.inst     0.000087                       # mshr miss rate for ReadReq accesses (Ratio)
system.cpu.icache.ReadReq.mshrMissRate::total     0.000087                       # mshr miss rate for ReadReq accesses (Ratio)
system.cpu.icache.ReadReq.avgMshrMissLatency::cpu.inst 64334.877561                       # average ReadReq mshr miss latency ((Tick/Count))
system.cpu.icache.ReadReq.avgMshrMissLatency::total 64334.877561                       # average ReadReq mshr miss latency ((Tick/Count))
system.cpu.icache.power_state.pwrStateResidencyTicks::UNDEFINED 245392661250                       # Cumulative time (in ticks) in various power states (Tick)
system.cpu.icache.tags.tagsInUse           502.946934                       # Average ticks per tags in use ((Tick/Count))
system.cpu.icache.tags.totalRefs             23509605                       # Total number of references to valid blocks. (Count)
system.cpu.icache.tags.sampledRefs               2049                       # Sample count of references to valid blocks. (Count)
system.cpu.icache.tags.avgRefs           11473.696925                       # Average number of references to valid blocks. ((Count/Count))
system.cpu.icache.tags.warmupTick               85250                       # The tick when the warmup percentage was hit. (Tick)
system.cpu.icache.tags.occupancies::cpu.inst   502.946934                       # Average occupied blocks per tick, per requestor ((Count/Tick))
system.cpu.icache.tags.avgOccs::cpu.inst     0.982318                       # Average percentage of cache occupancy ((Ratio/Tick))
system.cpu.icache.tags.avgOccs::total        0.982318                       # Average percentage of cache occupancy ((Ratio/Tick))
system.cpu.icache.tags.occupanciesTaskId::1024          509                       # Occupied blocks per task id (Count)
system.cpu.icache.tags.ageTaskId_1024::0          127                       # Occupied blocks per task id, per block age (Count)
system.cpu.icache.tags.ageTaskId_1024::1            1                       # Occupied blocks per task id, per block age (Count)
system.cpu.icache.tags.ageTaskId_1024::4          381                       # Occupied blocks per task id, per block age (Count)
system.cpu.icache.tags.ratioOccsTaskId::1024     0.994141                       # Ratio of occupied blocks and all blocks, per task id (Ratio)
system.cpu.icache.tags.tagAccesses           47022331                       # Number of tag accesses (Count)
system.cpu.icache.tags.dataAccesses          47022331                       # Number of data accesses (Count)
system.cpu.icache.tags.power_state.pwrStateResidencyTicks::UNDEFINED 245392661250                       # Cumulative time (in ticks) in various power states (Tick)
system.cpu.iew.idleCycles                           0                       # Number of cycles IEW is idle (Cycle)
system.cpu.iew.squashCycles                   2008501                       # Number of cycles IEW is squashing (Cycle)
system.cpu.iew.blockCycles                   54312902                       # Number of cycles IEW is blocking (Cycle)
system.cpu.iew.unblockCycles                212469347                       # Number of cycles IEW is unblocking (Cycle)
system.cpu.iew.dispatchedInsts              359008688                       # Number of instructions dispatched to IQ (Count)
system.cpu.iew.dispSquashedInsts                  464                       # Number of squashed instructions skipped by dispatch (Count)
system.cpu.iew.dispLoadInsts                 86144792                       # Number of dispatched load instructions (Count)
system.cpu.iew.dispStoreInsts                86051211                       # Number of dispatched store instructions (Count)
system.cpu.iew.dispNonSpecInsts                    25                       # Number of dispatched non-speculative instructions (Count)
system.cpu.iew.iqFullEvents                      1054                       # Number of times the IQ has become full, causing a stall (Count)
system.cpu.iew.lsqFullEvents                212642776                       # Number of times the LSQ has become full, causing a stall (Count)
system.cpu.iew.memOrderViolationEvents            163                       # Number of memory order violations (Count)
system.cpu.iew.predictedTakenIncorrect           2252                       # Number of branches that were predicted taken incorrectly (Count)
system.cpu.iew.predictedNotTakenIncorrect         4865                       # Number of branches that were predicted not taken incorrectly (Count)
system.cpu.iew.branchMispredicts                 7117                       # Number of branch mispredicts detected at execute (Count)
system.cpu.iew.instsToCommit                358903226                       # Cumulative count of insts sent to commit (Count)
system.cpu.iew.writebackCount               336896346                       # Cumulative count of insts written-back (Count)
system.cpu.iew.producerInst                 178784927                       # Number of instructions producing a value (Count)
system.cpu.iew.consumerInst                 232685602                       # Number of instructions consuming a value (Count)
system.cpu.iew.wbRate                        0.343222                       # Insts written-back per cycle ((Count/Cycle))
system.cpu.iew.wbFanout                      0.768354                       # Average fanout of values written-back ((Count/Count))
system.cpu.interrupts.clk_domain.clock           4000                       # Clock period in ticks (Tick)
system.cpu.itb_walker_cache.blockedCycles::no_mshrs            0                       # number of cycles access was blocked (Cycle)
system.cpu.itb_walker_cache.blockedCycles::no_targets            0                       # number of cycles access was blocked (Cycle)
system.cpu.itb_walker_cache.blockedCauses::no_mshrs            0                       # number of times access was blocked (Count)
system.cpu.itb_walker_cache.blockedCauses::no_targets            0                       # number of times access was blocked (Count)
system.cpu.itb_walker_cache.avgBlocked::no_mshrs          nan                       # average number of cycles each access was blocked ((Cycle/Count))
system.cpu.itb_walker_cache.avgBlocked::no_targets          nan                       # average number of cycles each access was blocked ((Cycle/Count))
system.cpu.itb_walker_cache.replacements            0                       # number of replacements (Count)
system.cpu.itb_walker_cache.power_state.pwrStateResidencyTicks::UNDEFINED 245392661250                       # Cumulative time (in ticks) in various power states (Tick)
system.cpu.itb_walker_cache.tags.tagsInUse            0                       # Average ticks per tags in use ((Tick/Count))
system.cpu.itb_walker_cache.tags.totalRefs            0                       # Total number of references to valid blocks. (Count)
system.cpu.itb_walker_cache.tags.sampledRefs            0                       # Sample count of references to valid blocks. (Count)
system.cpu.itb_walker_cache.tags.avgRefs          nan                       # Average number of references to valid blocks. ((Count/Count))
system.cpu.itb_walker_cache.tags.warmupTick            0                       # The tick when the warmup percentage was hit. (Tick)
system.cpu.itb_walker_cache.tags.tagAccesses            0                       # Number of tag accesses (Count)
system.cpu.itb_walker_cache.tags.dataAccesses            0                       # Number of data accesses (Count)
system.cpu.itb_walker_cache.tags.power_state.pwrStateResidencyTicks::UNDEFINED 245392661250                       # Cumulative time (in ticks) in various power states (Tick)
system.cpu.lsq0.forwLoads                        8643                       # Number of loads that had data forwarded from stores (Count)
system.cpu.lsq0.squashedLoads                50062995                       # Number of loads squashed (Count)
system.cpu.lsq0.ignoredResponses                   29                       # Number of memory responses ignored because the instruction is squashed (Count)
system.cpu.lsq0.memOrderViolation                 163                       # Number of memory ordering violations (Count)
system.cpu.lsq0.squashedStores               64018928                       # Number of stores squashed (Count)
system.cpu.lsq0.rescheduledLoads                   11                       # Number of loads that were rescheduled (Count)
system.cpu.lsq0.blockedByCache                 805947                       # Number of times an access to memory failed due to the cache being blocked (Count)
[...]
system.mem_ctrls1.dram.perBankRdBursts::14       367740                       # Per bank write bursts (Count)
system.mem_ctrls1.dram.perBankRdBursts::15       367376                       # Per bank write bursts (Count)
system.mem_ctrls1.dram.perBankWrBursts::0       156192                       # Per bank write bursts (Count)
system.mem_ctrls1.dram.perBankWrBursts::1       156200                       # Per bank write bursts (Count)
system.mem_ctrls1.dram.perBankWrBursts::2       156196                       # Per bank write bursts (Count)
system.mem_ctrls1.dram.perBankWrBursts::3       156206                       # Per bank write bursts (Count)
system.mem_ctrls1.dram.perBankWrBursts::4       156222                       # Per bank write bursts (Count)
system.mem_ctrls1.dram.perBankWrBursts::5       156224                       # Per bank write bursts (Count)
system.mem_ctrls1.dram.perBankWrBursts::6       156178                       # Per bank write bursts (Count)
system.mem_ctrls1.dram.perBankWrBursts::7       156166                       # Per bank write bursts (Count)
system.mem_ctrls1.dram.perBankWrBursts::8       156438                       # Per bank write bursts (Count)
system.mem_ctrls1.dram.perBankWrBursts::9       156480                       # Per bank write bursts (Count)
system.mem_ctrls1.dram.perBankWrBursts::10       156400                       # Per bank write bursts (Count)
system.mem_ctrls1.dram.perBankWrBursts::11       156366                       # Per bank write bursts (Count)
system.mem_ctrls1.dram.perBankWrBursts::12       156378                       # Per bank write bursts (Count)
system.mem_ctrls1.dram.perBankWrBursts::13       156387                       # Per bank write bursts (Count)
system.mem_ctrls1.dram.perBankWrBursts::14       156390                       # Per bank write bursts (Count)
system.mem_ctrls1.dram.perBankWrBursts::15       156274                       # Per bank write bursts (Count)
system.mem_ctrls1.dram.totQLat           133176976126                       # Total ticks spent queuing (Tick)
system.mem_ctrls1.dram.totBusLat          11759138000                       # Total ticks spent in databus transfers (Tick)
system.mem_ctrls1.dram.totMemAccLat      250768356126                       # Total ticks spent from burst creation until serviced by the DRAM (Tick)
system.mem_ctrls1.dram.avgQLat               22650.81                       # Average queueing delay per DRAM burst ((Tick/Count))
system.mem_ctrls1.dram.avgBusLat              2000.00                       # Average bus latency per DRAM burst ((Tick/Count))
system.mem_ctrls1.dram.avgMemAccLat          42650.81                       # Average memory access latency per DRAM burst ((Tick/Count))
system.mem_ctrls1.dram.readRowHits            2939761                       # Number of row buffer hits during reads (Count)
system.mem_ctrls1.dram.writeRowHits           2202212                       # Number of row buffer hits during writes (Count)
system.mem_ctrls1.dram.readRowHitRate           50.00                       # Row buffer hit rate for reads (Ratio)
system.mem_ctrls1.dram.writeRowHitRate          88.06                       # Row buffer hit rate for writes (Ratio)
system.mem_ctrls1.dram.bytesPerActivate::samples      3238293                       # Bytes accessed per row activation (Byte)
system.mem_ctrls1.dram.bytesPerActivate::mean    82.811689                       # Bytes accessed per row activation (Byte)
system.mem_ctrls1.dram.bytesPerActivate::gmean    71.829340                       # Bytes accessed per row activation (Byte)
system.mem_ctrls1.dram.bytesPerActivate::stdev    71.626558                       # Bytes accessed per row activation (Byte)
system.mem_ctrls1.dram.bytesPerActivate::0-63        14139      0.44%      0.44% # Bytes accessed per row activation (Byte)
system.mem_ctrls1.dram.bytesPerActivate::64-127      2968412     91.67%     92.10% # Bytes accessed per row activation (Byte)
system.mem_ctrls1.dram.bytesPerActivate::128-191        29858      0.92%     93.02% # Bytes accessed per row activation (Byte)
system.mem_ctrls1.dram.bytesPerActivate::192-255        32105      0.99%     94.02% # Bytes accessed per row activation (Byte)
system.mem_ctrls1.dram.bytesPerActivate::256-319        84892      2.62%     96.64% # Bytes accessed per row activation (Byte)
system.mem_ctrls1.dram.bytesPerActivate::320-383        55956      1.73%     98.37% # Bytes accessed per row activation (Byte)
system.mem_ctrls1.dram.bytesPerActivate::384-447         9569      0.30%     98.66% # Bytes accessed per row activation (Byte)
system.mem_ctrls1.dram.bytesPerActivate::448-511         8867      0.27%     98.93% # Bytes accessed per row activation (Byte)
system.mem_ctrls1.dram.bytesPerActivate::512-575        34495      1.07%    100.00% # Bytes accessed per row activation (Byte)
system.mem_ctrls1.dram.bytesPerActivate::total      3238293                       # Bytes accessed per row activation (Byte)
system.mem_ctrls1.dram.bytesRead            188146208                       # Total bytes read (Byte)
system.mem_ctrls1.dram.bytesWritten          80022304                       # Total bytes written (Byte)
system.mem_ctrls1.dram.avgRdBW             766.714893                       # Average DRAM read bandwidth in MiBytes/s ((Byte/Second))
system.mem_ctrls1.dram.avgWrBW             326.099010                       # Average DRAM write bandwidth in MiBytes/s ((Byte/Second))
system.mem_ctrls1.dram.peakBW                16000.00                       # Theoretical peak bandwidth in MiByte/s ((Byte/Second))
system.mem_ctrls1.dram.busUtil                   6.83                       # Data bus utilization in percentage (Ratio)
system.mem_ctrls1.dram.busUtilRead               4.79                       # Data bus utilization in percentage for reads (Ratio)
system.mem_ctrls1.dram.busUtilWrite              2.04                       # Data bus utilization in percentage for writes (Ratio)
system.mem_ctrls1.dram.pageHitRate              61.36                       # Row buffer hit rate, read and write combined (Ratio)
system.mem_ctrls1.dram.power_state.pwrStateResidencyTicks::UNDEFINED 245392661250                       # Cumulative time (in ticks) in various power states (Tick)
system.mem_ctrls1.dram.rank0.actEnergy              0                       # Energy for activate commands per rank (pJ) (Joule)
system.mem_ctrls1.dram.rank0.preEnergy              0                       # Energy for precharge commands per rank (pJ) (Joule)
system.mem_ctrls1.dram.rank0.readEnergy             0                       # Energy for read commands per rank (pJ) (Joule)
system.mem_ctrls1.dram.rank0.writeEnergy            0                       # Energy for write commands per rank (pJ) (Joule)
system.mem_ctrls1.dram.rank0.refreshEnergy            0                       # Energy for refresh commands per rank (pJ) (Joule)
system.mem_ctrls1.dram.rank0.actBackEnergy            0                       # Energy for active background per rank (pJ) (Joule)
system.mem_ctrls1.dram.rank0.preBackEnergy            0                       # Energy for precharge background per rank (pJ) (Joule)
system.mem_ctrls1.dram.rank0.actPowerDownEnergy            0                       # Energy for active power-down per rank (pJ) (Joule)
system.mem_ctrls1.dram.rank0.prePowerDownEnergy            0                       # Energy for precharge power-down per rank (pJ) (Joule)
system.mem_ctrls1.dram.rank0.selfRefreshEnergy            0                       # Energy for self refresh per rank (pJ) (Joule)
system.mem_ctrls1.dram.rank0.totalEnergy            0                       # Total energy per rank (pJ) (Joule)
system.mem_ctrls1.dram.rank0.averagePower            0                       # Core power per rank (mW) (Watt)
system.mem_ctrls1.dram.rank0.totalIdleTime            0                       # Total Idle time Per DRAM Rank (Tick)
system.mem_ctrls1.dram.rank0.pwrStateTime::IDLE  71918859899                       # Time in different power states (Tick)
system.mem_ctrls1.dram.rank0.pwrStateTime::REF  13892340000                       # Time in different power states (Tick)
system.mem_ctrls1.dram.rank0.pwrStateTime::SREF            0                       # Time in different power states (Tick)
system.mem_ctrls1.dram.rank0.pwrStateTime::PRE_PDN            0                       # Time in different power states (Tick)
system.mem_ctrls1.dram.rank0.pwrStateTime::ACT 159581461351                       # Time in different power states (Tick)
system.mem_ctrls1.dram.rank0.pwrStateTime::ACT_PDN            0                       # Time in different power states (Tick)
system.mem_ctrls1.power_state.pwrStateResidencyTicks::UNDEFINED 245392661250                       # Cumulative time (in ticks) in various power states (Tick)
system.membus.transDist::ReadResp             3503986                       # Transaction distribution (Count)
system.membus.transDist::WritebackDirty       2500738                       # Transaction distribution (Count)
system.membus.transDist::CleanEvict           3345736                       # Transaction distribution (Count)
system.membus.transDist::UpgradeReq                 1                       # Transaction distribution (Count)
system.membus.transDist::ReadExReq            2375641                       # Transaction distribution (Count)
system.membus.transDist::ReadExResp           2375641                       # Transaction distribution (Count)
system.membus.transDist::ReadSharedReq        3503986                       # Transaction distribution (Count)
system.membus.pktCount_system.l2.mem_side_port::system.mem_ctrls0.port      8802912                       # Packet count per connected requestor and responder (Count)
system.membus.pktCount_system.l2.mem_side_port::system.mem_ctrls1.port      8802817                       # Packet count per connected requestor and responder (Count)
system.membus.pktCount_system.l2.mem_side_port::total     17605729                       # Packet count per connected requestor and responder (Count)
system.membus.pktCount::total                17605729                       # Packet count per connected requestor and responder (Count)
system.membus.pktSize_system.l2.mem_side_port::system.mem_ctrls0.port    268173376                       # Cumulative packet size per connected requestor and responder (Byte)
system.membus.pktSize_system.l2.mem_side_port::system.mem_ctrls1.port    268169984                       # Cumulative packet size per connected requestor and responder (Byte)
system.membus.pktSize_system.l2.mem_side_port::total    536343360                       # Cumulative packet size per connected requestor and responder (Byte)
system.membus.pktSize::total                536343360                       # Cumulative packet size per connected requestor and responder (Byte)
system.membus.snoops                                0                       # Total snoops (Count)
system.membus.snoopTraffic                          0                       # Total snoop traffic (Byte)
system.membus.snoopFanout::samples            5879628                       # Request fanout histogram (Count)
system.membus.snoopFanout::mean                     0                       # Request fanout histogram (Count)
system.membus.snoopFanout::stdev                    0                       # Request fanout histogram (Count)
system.membus.snoopFanout::underflows               0      0.00%      0.00% # Request fanout histogram (Count)
system.membus.snoopFanout::0                  5879628    100.00%    100.00% # Request fanout histogram (Count)
system.membus.snoopFanout::1                        0      0.00%    100.00% # Request fanout histogram (Count)
system.membus.snoopFanout::overflows                0      0.00%    100.00% # Request fanout histogram (Count)
system.membus.snoopFanout::min_value                0                       # Request fanout histogram (Count)
system.membus.snoopFanout::max_value                0                       # Request fanout histogram (Count)
system.membus.snoopFanout::total              5879628                       # Request fanout histogram (Count)
system.membus.power_state.pwrStateResidencyTicks::UNDEFINED 245392661250                       # Cumulative time (in ticks) in various power states (Tick)
system.membus.reqLayer2.occupancy         11821691920                       # Layer occupancy (ticks) (Tick)
system.membus.reqLayer2.utilization               0.0                       # Layer utilization (Ratio)
system.membus.reqLayer3.occupancy         11819047801                       # Layer occupancy (ticks) (Tick)
system.membus.reqLayer3.utilization               0.0                       # Layer utilization (Ratio)
system.membus.respLayer1.occupancy        29915876109                       # Layer occupancy (ticks) (Tick)
system.membus.respLayer1.utilization              0.1                       # Layer utilization (Ratio)
system.membus.snoop_filter.totRequests       11726102                       # Total number of requests made to the snoop filter. (Count)
system.membus.snoop_filter.hitSingleRequests      5846481                       # Number of requests hitting in the snoop filter with a single holder of the requested data. (Count)
system.membus.snoop_filter.hitMultiRequests            0                       # Number of requests hitting in the snoop filter with multiple (>1) holders of the requested data. (Count)
system.membus.snoop_filter.totSnoops                0                       # Total number of snoops made to the snoop filter. (Count)
system.membus.snoop_filter.hitSingleSnoops            0                       # Number of snoops hitting in the snoop filter with a single holder of the requested data. (Count)
system.membus.snoop_filter.hitMultiSnoops            0                       # Number of snoops hitting in the snoop filter with multiple (>1) holders of the requested data. (Count)
system.tol2bus.transDist::ReadResp            3504785                       # Transaction distribution (Count)
system.tol2bus.transDist::WritebackDirty      5001653                       # Transaction distribution (Count)
system.tol2bus.transDist::WritebackClean         1533                       # Transaction distribution (Count)
system.tol2bus.transDist::CleanEvict          6722855                       # Transaction distribution (Count)
system.tol2bus.transDist::UpgradeReq                6                       # Transaction distribution (Count)
system.tol2bus.transDist::UpgradeResp               6                       # Transaction distribution (Count)
system.tol2bus.transDist::ReadExReq           2375687                       # Transaction distribution (Count)
system.tol2bus.transDist::ReadExResp          2375687                       # Transaction distribution (Count)
system.tol2bus.transDist::ReadCleanReq           2050                       # Transaction distribution (Count)
system.tol2bus.transDist::ReadSharedReq       3502736                       # Transaction distribution (Count)
system.tol2bus.pktCount_system.cpu.icache.mem_side_port::system.l2.cpu_side_port         5628                       # Packet count per connected requestor and responder (Count)
system.tol2bus.pktCount_system.cpu.dcache.mem_side_port::system.l2.cpu_side_port     17634257                       # Packet count per connected requestor and responder (Count)
system.tol2bus.pktCount::total               17639885                       # Packet count per connected requestor and responder (Count)
system.tol2bus.pktSize_system.cpu.icache.mem_side_port::system.l2.cpu_side_port       228992                       # Cumulative packet size per connected requestor and responder (Byte)
system.tol2bus.pktSize_system.cpu.dcache.mem_side_port::system.l2.cpu_side_port    536277632                       # Cumulative packet size per connected requestor and responder (Byte)
system.tol2bus.pktSize::total               536506624                       # Cumulative packet size per connected requestor and responder (Byte)
system.tol2bus.snoops                         5847113                       # Total snoops (Count)
system.tol2bus.snoopTraffic                 160047488                       # Total snoop traffic (Byte)
system.tol2bus.snoopFanout::samples          11727588                       # Request fanout histogram (Count)
system.tol2bus.snoopFanout::mean             0.000062                       # Request fanout histogram (Count)
system.tol2bus.snoopFanout::stdev            0.007862                       # Request fanout histogram (Count)
system.tol2bus.snoopFanout::underflows              0      0.00%      0.00% # Request fanout histogram (Count)
system.tol2bus.snoopFanout::0                11726866     99.99%     99.99% # Request fanout histogram (Count)
system.tol2bus.snoopFanout::1                     721      0.01%    100.00% # Request fanout histogram (Count)
system.tol2bus.snoopFanout::2                       1      0.00%    100.00% # Request fanout histogram (Count)
system.tol2bus.snoopFanout::3                       0      0.00%    100.00% # Request fanout histogram (Count)
system.tol2bus.snoopFanout::4                       0      0.00%    100.00% # Request fanout histogram (Count)
system.tol2bus.snoopFanout::overflows               0      0.00%    100.00% # Request fanout histogram (Count)
system.tol2bus.snoopFanout::min_value               0                       # Request fanout histogram (Count)
system.tol2bus.snoopFanout::max_value               2                       # Request fanout histogram (Count)
system.tol2bus.snoopFanout::total            11727588                       # Request fanout histogram (Count)
system.tol2bus.power_state.pwrStateResidencyTicks::UNDEFINED 245392661250                       # Cumulative time (in ticks) in various power states (Tick)
system.tol2bus.reqLayer0.occupancy         4191076750                       # Layer occupancy (ticks) (Tick)
system.tol2bus.reqLayer0.utilization              0.0                       # Layer utilization (Ratio)
system.tol2bus.respLayer0.occupancy           1536999                       # Layer occupancy (ticks) (Tick)
system.tol2bus.respLayer0.utilization             0.0                       # Layer utilization (Ratio)
system.tol2bus.respLayer1.occupancy        4408818750                       # Layer occupancy (ticks) (Tick)
system.tol2bus.respLayer1.utilization             0.0                       # Layer utilization (Ratio)
system.tol2bus.snoop_filter.totRequests      11759411                       # Total number of requests made to the snoop filter. (Count)
system.tol2bus.snoop_filter.hitSingleRequests      5878942                       # Number of requests hitting in the snoop filter with a single holder of the requested data. (Count)
system.tol2bus.snoop_filter.hitMultiRequests           44                       # Number of requests hitting in the snoop filter with multiple (>1) holders of the requested data. (Count)
system.tol2bus.snoop_filter.totSnoops             669                       # Total number of snoops made to the snoop filter. (Count)
system.tol2bus.snoop_filter.hitSingleSnoops          668                       # Number of snoops hitting in the snoop filter with a single holder of the requested data. (Count)
system.tol2bus.snoop_filter.hitMultiSnoops            1                       # Number of snoops hitting in the snoop filter with multiple (>1) holders of the requested data. (Count)
system.voltage_domain.voltage                       1                       # Voltage in Volts (Volt)
system.workload.inst.arm                            0                       # number of arm instructions executed (Count)
system.workload.inst.quiesce                        0                       # number of quiesce instructions executed (Count)

---------- End Simulation Statistics   ----------
