
---------- Begin Simulation Statistics ----------
simSeconds                                   0.057537                       # Number of seconds simulated (Second)
simTicks                                  57537340500                       # Number of ticks simulated (Tick)
finalTick                                 57537340500                       # Number of ticks from beginning of simulation (restored from checkpoints and never reset) (Tick)
simFreq                                  1000000000000                       # The number of ticks per simulated second ((Tick/Second))
hostSeconds                                   5054.29                       # Real time elapsed on the host (Second)
hostTickRate                                 11383859                       # The number of ticks simulated per host second (ticks/s) ((Tick/Second))
hostMemory                                   10752512                       # Number of bytes of host memory used (Byte)
simInsts                                    324756967                       # Number of instructions simulated (Count)
simOps                                      564212261                       # Number of ops (including micro ops) simulated (Count)
hostInstRate                                    64254                       # Simulator instruction rate (inst/s) ((Count/Second))
hostOpRate                                     111630                       # Simulator op (including micro ops) rate (op/s) ((Count/Second))
system.clk_domain.clock                          1000                       # Clock period in ticks (Tick)
system.cpu0.numCycles                       230149363                       # Number of cpu cycles simulated (Cycle)
system.cpu0.numWorkItemsStarted                     0                       # Number of work items this cpu started (Count)
system.cpu0.numWorkItemsCompleted                   0                       # Number of work items this cpu completed (Count)
system.cpu0.instsAdded                       41769639                       # Number of instructions added to the IQ (excludes non-spec) (Count)
system.cpu0.nonSpecInstsAdded                    1814                       # Number of non-speculative instructions added to the IQ (Count)
system.cpu0.instsIssued                      41760911                       # Number of instructions issued (Count)
system.cpu0.squashedInstsIssued                  1964                       # Number of squashed instructions issued (Count)
system.cpu0.squashedInstsExamined              606829                       # Number of squashed instructions iterated over during squash; mainly for profiling (Count)
system.cpu0.squashedOperandsExamined           798537                       # Number of squashed operands that are examined and possibly removed from graph (Count)
system.cpu0.squashedNonSpecRemoved                266                       # Number of squashed non-spec instructions that were removed (Count)
system.cpu0.numIssuedDist::samples          229626088                       # Number of insts issued each cycle (Count)
system.cpu0.numIssuedDist::mean              0.181865                       # Number of insts issued each cycle (Count)
system.cpu0.numIssuedDist::stdev             0.853119                       # Number of insts issued each cycle (Count)
system.cpu0.numIssuedDist::underflows               0      0.00%      0.00% # Number of insts issued each cycle (Count)
system.cpu0.numIssuedDist::0                215531871     93.86%     93.86% # Number of insts issued each cycle (Count)
system.cpu0.numIssuedDist::1                  4278582      1.86%     95.73% # Number of insts issued each cycle (Count)
system.cpu0.numIssuedDist::2                  2855945      1.24%     96.97% # Number of insts issued each cycle (Count)
system.cpu0.numIssuedDist::3                  1839449      0.80%     97.77% # Number of insts issued each cycle (Count)
system.cpu0.numIssuedDist::4                  2322041      1.01%     98.78% # Number of insts issued each cycle (Count)
system.cpu0.numIssuedDist::5                   950868      0.41%     99.20% # Number of insts issued each cycle (Count)
system.cpu0.numIssuedDist::6                   922168      0.40%     99.60% # Number of insts issued each cycle (Count)
system.cpu0.numIssuedDist::7                   724732      0.32%     99.91% # Number of insts issued each cycle (Count)
system.cpu0.numIssuedDist::8                   200432      0.09%    100.00% # Number of insts issued each cycle (Count)
system.cpu0.numIssuedDist::overflows                0      0.00%    100.00% # Number of insts issued each cycle (Count)
system.cpu0.numIssuedDist::min_value                0                       # Number of insts issued each cycle (Count)
system.cpu0.numIssuedDist::max_value                8                       # Number of insts issued each cycle (Count)
system.cpu0.numIssuedDist::total            229626088                       # Number of insts issued each cycle (Count)
system.cpu0.statFuBusy::No_OpClass                  0      0.00%      0.00% # attempts to use FU when none available (Count)
system.cpu0.statFuBusy::IntAlu                  14081      2.07%      2.07% # attempts to use FU when none available (Count)
system.cpu0.statFuBusy::IntMult                     0      0.00%      2.07% # attempts to use FU when none available (Count)
system.cpu0.statFuBusy::IntDiv                      0      0.00%      2.07% # attempts to use FU when none available (Count)
system.cpu0.statFuBusy::FloatAdd                    0      0.00%      2.07% # attempts to use FU when none available (Count)
system.cpu0.statFuBusy::FloatCmp                    0      0.00%      2.07% # attempts to use FU when none available (Count)
system.cpu0.statFuBusy::FloatCvt                    2      0.00%      2.07% # attempts to use FU when none available (Count)
system.cpu0.statFuBusy::FloatMult                   0      0.00%      2.07% # attempts to use FU when none available (Count)
system.cpu0.statFuBusy::FloatMultAcc                0      0.00%      2.07% # attempts to use FU when none available (Count)
system.cpu0.statFuBusy::FloatDiv                    0      0.00%      2.07% # attempts to use FU when none available (Count)
system.cpu0.statFuBusy::FloatMisc                   0      0.00%      2.07% # attempts to use FU when none available (Count)
system.cpu0.statFuBusy::FloatSqrt                   0      0.00%      2.07% # attempts to use FU when none available (Count)
system.cpu0.statFuBusy::SimdAdd                     2      0.00%      2.07% # attempts to use FU when none available (Count)
system.cpu0.statFuBusy::SimdAddAcc                  0      0.00%      2.07% # attempts to use FU when none available (Count)
system.cpu0.statFuBusy::SimdAlu                   116      0.02%      2.09% # attempts to use FU when none available (Count)
system.cpu0.statFuBusy::SimdCmp                     0      0.00%      2.09% # attempts to use FU when none available (Count)
system.cpu0.statFuBusy::SimdCvt                   100      0.01%      2.10% # attempts to use FU when none available (Count)
system.cpu0.statFuBusy::SimdMisc                   64      0.01%      2.11% # attempts to use FU when none available (Count)
system.cpu0.statFuBusy::SimdMult                    0      0.00%      2.11% # attempts to use FU when none available (Count)
system.cpu0.statFuBusy::SimdMultAcc                 0      0.00%      2.11% # attempts to use FU when none available (Count)
system.cpu0.statFuBusy::SimdShift                  17      0.00%      2.11% # attempts to use FU when none available (Count)
system.cpu0.statFuBusy::SimdShiftAcc                0      0.00%      2.11% # attempts to use FU when none available (Count)
system.cpu0.statFuBusy::SimdDiv                     0      0.00%      2.11% # attempts to use FU when none available (Count)
system.cpu0.statFuBusy::SimdSqrt                    0      0.00%      2.11% # attempts to use FU when none available (Count)
system.cpu0.statFuBusy::SimdFloatAdd           638554     93.81%     95.93% # attempts to use FU when none available (Count)
system.cpu0.statFuBusy::SimdFloatAlu                0      0.00%     95.93% # attempts to use FU when none available (Count)
system.cpu0.statFuBusy::SimdFloatCmp                0      0.00%     95.93% # attempts to use FU when none available (Count)
system.cpu0.statFuBusy::SimdFloatCvt                1      0.00%     95.93% # attempts to use FU when none available (Count)
system.cpu0.statFuBusy::SimdFloatDiv                0      0.00%     95.93% # attempts to use FU when none available (Count)
system.cpu0.statFuBusy::SimdFloatMisc               0      0.00%     95.93% # attempts to use FU when none available (Count)
system.cpu0.statFuBusy::SimdFloatMult               0      0.00%     95.93% # attempts to use FU when none available (Count)
system.cpu0.statFuBusy::SimdFloatMultAcc            0      0.00%     95.93% # attempts to use FU when none available (Count)
system.cpu0.statFuBusy::SimdFloatSqrt               0      0.00%     95.93% # attempts to use FU when none available (Count)
system.cpu0.statFuBusy::SimdReduceAdd               0      0.00%     95.93% # attempts to use FU when none available (Count)
system.cpu0.statFuBusy::SimdReduceAlu               0      0.00%     95.93% # attempts to use FU when none available (Count)
system.cpu0.statFuBusy::SimdReduceCmp               0      0.00%     95.93% # attempts to use FU when none available (Count)
system.cpu0.statFuBusy::SimdFloatReduceAdd            0      0.00%     95.93% # attempts to use FU when none available (Count)
system.cpu0.statFuBusy::SimdFloatReduceCmp            0      0.00%     95.93% # attempts to use FU when none available (Count)
system.cpu0.statFuBusy::SimdAes                     0      0.00%     95.93% # attempts to use FU when none available (Count)
system.cpu0.statFuBusy::SimdAesMix                  0      0.00%     95.93% # attempts to use FU when none available (Count)
system.cpu0.statFuBusy::SimdSha1Hash                0      0.00%     95.93% # attempts to use FU when none available (Count)
system.cpu0.statFuBusy::SimdSha1Hash2               0      0.00%     95.93% # attempts to use FU when none available (Count)
system.cpu0.statFuBusy::SimdSha256Hash              0      0.00%     95.93% # attempts to use FU when none available (Count)
system.cpu0.statFuBusy::SimdSha256Hash2             0      0.00%     95.93% # attempts to use FU when none available (Count)
system.cpu0.statFuBusy::SimdShaSigma2               0      0.00%     95.93% # attempts to use FU when none available (Count)
system.cpu0.statFuBusy::SimdShaSigma3               0      0.00%     95.93% # attempts to use FU when none available (Count)
system.cpu0.statFuBusy::SimdPredAlu                 0      0.00%     95.93% # attempts to use FU when none available (Count)
system.cpu0.statFuBusy::MemRead                  2475      0.36%     96.29% # attempts to use FU when none available (Count)
system.cpu0.statFuBusy::MemWrite                 1797      0.26%     96.56% # attempts to use FU when none available (Count)
system.cpu0.statFuBusy::FloatMemRead             8984      1.32%     97.88% # attempts to use FU when none available (Count)
system.cpu0.statFuBusy::FloatMemWrite           14461      2.12%    100.00% # attempts to use FU when none available (Count)
system.cpu0.statFuBusy::IprAccess                   0      0.00%    100.00% # attempts to use FU when none available (Count)
system.cpu0.statFuBusy::InstPrefetch                0      0.00%    100.00% # attempts to use FU when none available (Count)
system.cpu0.statIssuedInstType_0::No_OpClass         6929      0.02%      0.02% # Number of instructions issued per FU type, per thread (Count)
system.cpu0.statIssuedInstType_0::IntAlu     20986876     50.25%     50.27% # Number of instructions issued per FU type, per thread (Count)
system.cpu0.statIssuedInstType_0::IntMult          325      0.00%     50.27% # Number of instructions issued per FU type, per thread (Count)
system.cpu0.statIssuedInstType_0::IntDiv         2958      0.01%     50.28% # Number of instructions issued per FU type, per thread (Count)
system.cpu0.statIssuedInstType_0::FloatAdd      3288021      7.87%     58.15% # Number of instructions issued per FU type, per thread (Count)
system.cpu0.statIssuedInstType_0::FloatCmp            0      0.00%     58.15% # Number of instructions issued per FU type, per thread (Count)
system.cpu0.statIssuedInstType_0::FloatCvt          536      0.00%     58.15% # Number of instructions issued per FU type, per thread (Count)
system.cpu0.statIssuedInstType_0::FloatMult            0      0.00%     58.15% # Number of instructions issued per FU type, per thread (Count)
system.cpu0.statIssuedInstType_0::FloatMultAcc            0      0.00%     58.15% # Number of instructions issued per FU type, per thread (Count)
system.cpu0.statIssuedInstType_0::FloatDiv            0      0.00%     58.15% # Number of instructions issued per FU type, per thread (Count)
system.cpu0.statIssuedInstType_0::FloatMisc            0      0.00%     58.15% # Number of instructions issued per FU type, per thread (Count)
system.cpu0.statIssuedInstType_0::FloatSqrt            0      0.00%     58.15% # Number of instructions issued per FU type, per thread (Count)
system.cpu0.statIssuedInstType_0::SimdAdd         2644      0.01%     58.16% # Number of instructions issued per FU type, per thread (Count)
system.cpu0.statIssuedInstType_0::SimdAddAcc            0      0.00%     58.16% # Number of instructions issued per FU type, per thread (Count)
system.cpu0.statIssuedInstType_0::SimdAlu        27542      0.07%     58.23% # Number of instructions issued per FU type, per thread (Count)
system.cpu0.statIssuedInstType_0::SimdCmp           76      0.00%     58.23% # Number of instructions issued per FU type, per thread (Count)
system.cpu0.statIssuedInstType_0::SimdCvt         6343      0.02%     58.24% # Number of instructions issued per FU type, per thread (Count)
system.cpu0.statIssuedInstType_0::SimdMisc         4705      0.01%     58.25% # Number of instructions issued per FU type, per thread (Count)
system.cpu0.statIssuedInstType_0::SimdMult            0      0.00%     58.25% # Number of instructions issued per FU type, per thread (Count)
system.cpu0.statIssuedInstType_0::SimdMultAcc            0      0.00%     58.25% # Number of instructions issued per FU type, per thread (Count)
system.cpu0.statIssuedInstType_0::SimdShift         1828      0.00%     58.26% # Number of instructions issued per FU type, per thread (Count)
system.cpu0.statIssuedInstType_0::SimdShiftAcc            0      0.00%     58.26% # Number of instructions issued per FU type, per thread (Count)
system.cpu0.statIssuedInstType_0::SimdDiv            0      0.00%     58.26% # Number of instructions issued per FU type, per thread (Count)
system.cpu0.statIssuedInstType_0::SimdSqrt            0      0.00%     58.26% # Number of instructions issued per FU type, per thread (Count)
system.cpu0.statIssuedInstType_0::SimdFloatAdd      6292148     15.07%     73.32% # Number of instructions issued per FU type, per thread (Count)
system.cpu0.statIssuedInstType_0::SimdFloatAlu            0      0.00%     73.32% # Number of instructions issued per FU type, per thread (Count)
system.cpu0.statIssuedInstType_0::SimdFloatCmp           25      0.00%     73.32% # Number of instructions issued per FU type, per thread (Count)
system.cpu0.statIssuedInstType_0::SimdFloatCvt      3016395      7.22%     80.55% # Number of instructions issued per FU type, per thread (Count)
system.cpu0.statIssuedInstType_0::SimdFloatDiv           17      0.00%     80.55% # Number of instructions issued per FU type, per thread (Count)
system.cpu0.statIssuedInstType_0::SimdFloatMisc            0      0.00%     80.55% # Number of instructions issued per FU type, per thread (Count)
system.cpu0.statIssuedInstType_0::SimdFloatMult       255492      0.61%     81.16% # Number of instructions issued per FU type, per thread (Count)
system.cpu0.statIssuedInstType_0::SimdFloatMultAcc            0      0.00%     81.16% # Number of instructions issued per FU type, per thread (Count)
system.cpu0.statIssuedInstType_0::SimdFloatSqrt            0      0.00%     81.16% # Number of instructions issued per FU type, per thread (Count)
system.cpu0.statIssuedInstType_0::SimdReduceAdd            0      0.00%     81.16% # Number of instructions issued per FU type, per thread (Count)
system.cpu0.statIssuedInstType_0::SimdReduceAlu            0      0.00%     81.16% # Number of instructions issued per FU type, per thread (Count)
system.cpu0.statIssuedInstType_0::SimdReduceCmp            0      0.00%     81.16% # Number of instructions issued per FU type, per thread (Count)
system.cpu0.statIssuedInstType_0::SimdFloatReduceAdd            0      0.00%     81.16% # Number of instructions issued per FU type, per thread (Count)
system.cpu0.statIssuedInstType_0::SimdFloatReduceCmp            0      0.00%     81.16% # Number of instructions issued per FU type, per thread (Count)
system.cpu0.statIssuedInstType_0::SimdAes            0      0.00%     81.16% # Number of instructions issued per FU type, per thread (Count)
system.cpu0.statIssuedInstType_0::SimdAesMix            0      0.00%     81.16% # Number of instructions issued per FU type, per thread (Count)
system.cpu0.statIssuedInstType_0::SimdSha1Hash            0      0.00%     81.16% # Number of instructions issued per FU type, per thread (Count)
system.cpu0.statIssuedInstType_0::SimdSha1Hash2            0      0.00%     81.16% # Number of instructions issued per FU type, per thread (Count)
system.cpu0.statIssuedInstType_0::SimdSha256Hash            0      0.00%     81.16% # Number of instructions issued per FU type, per thread (Count)
system.cpu0.statIssuedInstType_0::SimdSha256Hash2            0      0.00%     81.16% # Number of instructions issued per FU type, per thread (Count)
system.cpu0.statIssuedInstType_0::SimdShaSigma2            0      0.00%     81.16% # Number of instructions issued per FU type, per thread (Count)
system.cpu0.statIssuedInstType_0::SimdShaSigma3            0      0.00%     81.16% # Number of instructions issued per FU type, per thread (Count)
system.cpu0.statIssuedInstType_0::SimdPredAlu            0      0.00%     81.16% # Number of instructions issued per FU type, per thread (Count)
system.cpu0.statIssuedInstType_0::MemRead       212191      0.51%     81.67% # Number of instructions issued per FU type, per thread (Count)
system.cpu0.statIssuedInstType_0::MemWrite       113876      0.27%     81.94% # Number of instructions issued per FU type, per thread (Count)
system.cpu0.statIssuedInstType_0::FloatMemRead      6938067     16.61%     98.55% # Number of instructions issued per FU type, per thread (Count)
system.cpu0.statIssuedInstType_0::FloatMemWrite       603917      1.45%    100.00% # Number of instructions issued per FU type, per thread (Count)
system.cpu0.statIssuedInstType_0::IprAccess            0      0.00%    100.00% # Number of instructions issued per FU type, per thread (Count)
system.cpu0.statIssuedInstType_0::InstPrefetch            0      0.00%    100.00% # Number of instructions issued per FU type, per thread (Count)
system.cpu0.statIssuedInstType_0::total      41760911                       # Number of instructions issued per FU type, per thread (Count)
system.cpu0.issueRate                        0.181451                       # Inst issue rate ((Count/Cycle))
system.cpu0.fuBusy                             680654                       # FU busy when requested (Count)
system.cpu0.fuBusyRate                       0.016299                       # FU busy rate (busy events/executed inst) ((Count/Count))
system.cpu0.intInstQueueReads               271268265                       # Number of integer instruction queue reads (Count)
system.cpu0.intInstQueueWrites               21471094                       # Number of integer instruction queue writes (Count)
system.cpu0.intInstQueueWakeupAccesses       20754771                       # Number of integer instruction queue wakeup accesses (Count)
system.cpu0.fpInstQueueReads                 42562263                       # Number of floating instruction queue reads (Count)
system.cpu0.fpInstQueueWrites                20907439                       # Number of floating instruction queue writes (Count)
system.cpu0.fpInstQueueWakeupAccesses        20831498                       # Number of floating instruction queue wakeup accesses (Count)
system.cpu0.vecInstQueueReads                       0                       # Number of vector instruction queue reads (Count)
system.cpu0.vecInstQueueWrites                      0                       # Number of vector instruction queue writes (Count)
system.cpu0.vecInstQueueWakeupAccesses              0                       # Number of vector instruction queue wakeup accesses (Count)
system.cpu0.intAluAccesses                   20822453                       # Number of integer alu accesses (Count)
system.cpu0.fpAluAccesses                    21612183                       # Number of floating point alu accesses (Count)
system.cpu0.vecAluAccesses                          0                       # Number of vector alu accesses (Count)
system.cpu0.numInsts                         41728440                       # Number of executed instructions (Count)
system.cpu0.numLoadInsts                      7144391                       # Number of load instructions executed (Count)
system.cpu0.numSquashedInsts                    32471                       # Number of squashed instructions skipped in execute (Count)
system.cpu0.numSwp                                  0                       # Number of swp insts executed (Count)
system.cpu0.numNop                                  0                       # Number of nop insts executed (Count)
system.cpu0.numRefs                           7861137                       # Number of memory reference insts executed (Count)
system.cpu0.numBranches                       4470203                       # Number of branches executed (Count)
system.cpu0.numStoreInsts                      716746                       # Number of stores executed (Count)
system.cpu0.numRate                          0.181310                       # Inst execution rate ((Count/Cycle))
system.cpu0.timesIdled                           1984                       # Number of times that the entire CPU went into an idle state and unscheduled itself (Count)
system.cpu0.idleCycles                         523275                       # Total number of cycles that the CPU has spent unscheduled due to idling (Cycle)
system.cpu0.committedInsts                   22448636                       # Number of Instructions Simulated (Count)
system.cpu0.committedOps                     41164618                       # Number of Ops (including micro ops) Simulated (Count)
system.cpu0.cpi                             10.252265                       # CPI: Cycles Per Instruction ((Cycle/Count))
system.cpu0.totalCpi                        10.252265                       # CPI: Total CPI of All Threads ((Cycle/Count))
system.cpu0.ipc                              0.097539                       # IPC: Instructions Per Cycle ((Count/Cycle))
system.cpu0.totalIpc                         0.097539                       # IPC: Total IPC of All Threads ((Count/Cycle))
system.cpu0.intRegfileReads                  29968432                       # Number of integer regfile reads (Count)
system.cpu0.intRegfileWrites                 14735443                       # Number of integer regfile writes (Count)
system.cpu0.fpRegfileReads                   27396091                       # Number of floating regfile reads (Count)
system.cpu0.fpRegfileWrites                  17218872                       # Number of floating regfile writes (Count)
system.cpu0.ccRegfileReads                   28292232                       # number of cc regfile reads (Count)
system.cpu0.ccRegfileWrites                  11643757                       # number of cc regfile writes (Count)
system.cpu0.miscRegfileReads                 17074896                       # number of misc regfile reads (Count)
system.cpu0.miscRegfileWrites                     234                       # number of misc regfile writes (Count)
system.cpu0.MemDepUnit__0.insertedLoads       7041297                       # Number of loads inserted to the mem dependence unit. (Count)
system.cpu0.MemDepUnit__0.insertedStores       722720                       # Number of stores inserted to the mem dependence unit. (Count)
system.cpu0.MemDepUnit__0.conflictingLoads        40326                       # Number of conflicting loads. (Count)
system.cpu0.MemDepUnit__0.conflictingStores        38239                       # Number of conflicting stores. (Count)
system.cpu0.MemDepUnit__1.insertedLoads             0                       # Number of loads inserted to the mem dependence unit. (Count)
system.cpu0.MemDepUnit__1.insertedStores            0                       # Number of stores inserted to the mem dependence unit. (Count)
system.cpu0.MemDepUnit__1.conflictingLoads            0                       # Number of conflicting loads. (Count)
system.cpu0.MemDepUnit__1.conflictingStores            0                       # Number of conflicting stores. (Count)
system.cpu0.MemDepUnit__2.insertedLoads             0                       # Number of loads inserted to the mem dependence unit. (Count)
system.cpu0.MemDepUnit__2.insertedStores            0                       # Number of stores inserted to the mem dependence unit. (Count)
system.cpu0.MemDepUnit__2.conflictingLoads            0                       # Number of conflicting loads. (Count)
system.cpu0.MemDepUnit__2.conflictingStores            0                       # Number of conflicting stores. (Count)
system.cpu0.MemDepUnit__3.insertedLoads             0                       # Number of loads inserted to the mem dependence unit. (Count)
system.cpu0.MemDepUnit__3.insertedStores            0                       # Number of stores inserted to the mem dependence unit. (Count)
system.cpu0.MemDepUnit__3.conflictingLoads            0                       # Number of conflicting loads. (Count)
system.cpu0.MemDepUnit__3.conflictingStores            0                       # Number of conflicting stores. (Count)
system.cpu0.branchPred.lookups                4527969                       # Number of BP lookups (Count)
system.cpu0.branchPred.condPredicted          4469395                       # Number of conditional branches predicted (Count)
system.cpu0.branchPred.condIncorrect             9268                       # Number of conditional branches incorrect (Count)
system.cpu0.branchPred.BTBLookups             1376125                       # Number of BTB lookups (Count)
system.cpu0.branchPred.BTBHits                1372408                       # Number of BTB hits (Count)
system.cpu0.branchPred.BTBHitRatio           0.997299                       # BTB Hit Ratio (Ratio)
system.cpu0.branchPred.RASUsed                  20479                       # Number of times the RAS was used to get a target. (Count)
system.cpu0.branchPred.RASIncorrect                 6                       # Number of incorrect RAS predictions. (Count)
system.cpu0.branchPred.indirectLookups          11652                       # Number of indirect predictor lookups. (Count)
system.cpu0.branchPred.indirectHits              7016                       # Number of indirect target hits. (Count)
system.cpu0.branchPred.indirectMisses            4636                       # Number of indirect misses. (Count)
system.cpu0.branchPred.indirectMispredicted          896                       # Number of mispredicted indirect branches. (Count)
system.cpu0.commit.commitSquashedInsts         488929                       # The number of squashed insts skipped by commit (Count)
system.cpu0.commit.commitNonSpecStalls           1548                       # The number of times commit has been forced to stall to communicate backwards (Count)
system.cpu0.commit.branchMispredicts             9752                       # The number of times a branch was mispredicted (Count)
system.cpu0.commit.numCommittedDist::samples    229554575                       # Number of insts commited each cycle (Count)
system.cpu0.commit.numCommittedDist::mean     0.179324                       # Number of insts commited each cycle (Count)
system.cpu0.commit.numCommittedDist::stdev     1.107825                       # Number of insts commited each cycle (Count)
system.cpu0.commit.numCommittedDist::underflows            0      0.00%      0.00% # Number of insts commited each cycle (Count)
system.cpu0.commit.numCommittedDist::0      222015417     96.72%     96.72% # Number of insts commited each cycle (Count)
system.cpu0.commit.numCommittedDist::1        1168884      0.51%     97.22% # Number of insts commited each cycle (Count)
system.cpu0.commit.numCommittedDist::2         664434      0.29%     97.51% # Number of insts commited each cycle (Count)
system.cpu0.commit.numCommittedDist::3        1009396      0.44%     97.95% # Number of insts commited each cycle (Count)
system.cpu0.commit.numCommittedDist::4         234047      0.10%     98.06% # Number of insts commited each cycle (Count)
system.cpu0.commit.numCommittedDist::5         277415      0.12%     98.18% # Number of insts commited each cycle (Count)
system.cpu0.commit.numCommittedDist::6          72686      0.03%     98.21% # Number of insts commited each cycle (Count)
system.cpu0.commit.numCommittedDist::7          19069      0.01%     98.22% # Number of insts commited each cycle (Count)
system.cpu0.commit.numCommittedDist::8        4093227      1.78%    100.00% # Number of insts commited each cycle (Count)
system.cpu0.commit.numCommittedDist::overflows            0      0.00%    100.00% # Number of insts commited each cycle (Count)
system.cpu0.commit.numCommittedDist::min_value            0                       # Number of insts commited each cycle (Count)
system.cpu0.commit.numCommittedDist::max_value            8                       # Number of insts commited each cycle (Count)
system.cpu0.commit.numCommittedDist::total    229554575                       # Number of insts commited each cycle (Count)
system.cpu0.commit.instsCommitted            22448636                       # Number of instructions committed (Count)
system.cpu0.commit.opsCommitted              41164618                       # Number of ops (including micro ops) committed (Count)
system.cpu0.commit.memRefs                    7651449                       # Number of memory references committed (Count)
system.cpu0.commit.loads                      6953475                       # Number of loads committed (Count)
system.cpu0.commit.amos                             0                       # Number of atomic instructions committed (Count)
system.cpu0.commit.membars                        876                       # Number of memory barriers committed (Count)
system.cpu0.commit.branches                   4430857                       # Number of branches committed (Count)
system.cpu0.commit.vectorInstructions               0                       # Number of committed Vector instructions. (Count)
system.cpu0.commit.floating                  20773223                       # Number of committed floating point instructions. (Count)
system.cpu0.commit.integer                   27764877                       # Number of committed integer instructions. (Count)
system.cpu0.commit.functionCalls                 9867                       # Number of function calls committed. (Count)
system.cpu0.commit.committedInstType_0::No_OpClass         2205      0.01%      0.01% # Class of committed instruction (Count)
system.cpu0.commit.committedInstType_0::IntAlu     20648671     50.16%     50.17% # Class of committed instruction (Count)
system.cpu0.commit.committedInstType_0::IntMult          278      0.00%     50.17% # Class of committed instruction (Count)
system.cpu0.commit.committedInstType_0::IntDiv         2662      0.01%     50.17% # Class of committed instruction (Count)
system.cpu0.commit.committedInstType_0::FloatAdd      3284708      7.98%     58.15% # Class of committed instruction (Count)
system.cpu0.commit.committedInstType_0::FloatCmp            0      0.00%     58.15% # Class of committed instruction (Count)
system.cpu0.commit.committedInstType_0::FloatCvt          416      0.00%     58.15% # Class of committed instruction (Count)
system.cpu0.commit.committedInstType_0::FloatMult            0      0.00%     58.15% # Class of committed instruction (Count)
system.cpu0.commit.committedInstType_0::FloatMultAcc            0      0.00%     58.15% # Class of committed instruction (Count)
system.cpu0.commit.committedInstType_0::FloatDiv            0      0.00%     58.15% # Class of committed instruction (Count)
system.cpu0.commit.committedInstType_0::FloatMisc            0      0.00%     58.15% # Class of committed instruction (Count)
system.cpu0.commit.committedInstType_0::FloatSqrt            0      0.00%     58.15% # Class of committed instruction (Count)
system.cpu0.commit.committedInstType_0::SimdAdd         2080      0.01%     58.16% # Class of committed instruction (Count)
system.cpu0.commit.committedInstType_0::SimdAddAcc            0      0.00%     58.16% # Class of committed instruction (Count)
system.cpu0.commit.committedInstType_0::SimdAlu        14641      0.04%     58.19% # Class of committed instruction (Count)
system.cpu0.commit.committedInstType_0::SimdCmp           72      0.00%     58.19% # Class of committed instruction (Count)
system.cpu0.commit.committedInstType_0::SimdCvt         4652      0.01%     58.21% # Class of committed instruction (Count)
system.cpu0.commit.committedInstType_0::SimdMisc         4097      0.01%     58.22% # Class of committed instruction (Count)
system.cpu0.commit.committedInstType_0::SimdMult            0      0.00%     58.22% # Class of committed instruction (Count)
system.cpu0.commit.committedInstType_0::SimdMultAcc            0      0.00%     58.22% # Class of committed instruction (Count)
system.cpu0.commit.committedInstType_0::SimdShift          932      0.00%     58.22% # Class of committed instruction (Count)
system.cpu0.commit.committedInstType_0::SimdShiftAcc            0      0.00%     58.22% # Class of committed instruction (Count)
system.cpu0.commit.committedInstType_0::SimdDiv            0      0.00%     58.22% # Class of committed instruction (Count)
system.cpu0.commit.committedInstType_0::SimdSqrt            0      0.00%     58.22% # Class of committed instruction (Count)
system.cpu0.commit.committedInstType_0::SimdFloatAdd      6286724     15.27%     73.49% # Class of committed instruction (Count)
system.cpu0.commit.committedInstType_0::SimdFloatAlu            0      0.00%     73.49% # Class of committed instruction (Count)
system.cpu0.commit.committedInstType_0::SimdFloatCmp           24      0.00%     73.49% # Class of committed instruction (Count)
system.cpu0.commit.committedInstType_0::SimdFloatCvt      3008224      7.31%     80.80% # Class of committed instruction (Count)
system.cpu0.commit.committedInstType_0::SimdFloatDiv           15      0.00%     80.80% # Class of committed instruction (Count)
system.cpu0.commit.committedInstType_0::SimdFloatMisc            0      0.00%     80.80% # Class of committed instruction (Count)
system.cpu0.commit.committedInstType_0::SimdFloatMult       252768      0.61%     81.41% # Class of committed instruction (Count)
system.cpu0.commit.committedInstType_0::SimdFloatMultAcc            0      0.00%     81.41% # Class of committed instruction (Count)
system.cpu0.commit.committedInstType_0::SimdFloatSqrt            0      0.00%     81.41% # Class of committed instruction (Count)
system.cpu0.commit.committedInstType_0::SimdReduceAdd            0      0.00%     81.41% # Class of committed instruction (Count)
system.cpu0.commit.committedInstType_0::SimdReduceAlu            0      0.00%     81.41% # Class of committed instruction (Count)
system.cpu0.commit.committedInstType_0::SimdReduceCmp            0      0.00%     81.41% # Class of committed instruction (Count)
system.cpu0.commit.committedInstType_0::SimdFloatReduceAdd            0      0.00%     81.41% # Class of committed instruction (Count)
system.cpu0.commit.committedInstType_0::SimdFloatReduceCmp            0      0.00%     81.41% # Class of committed instruction (Count)
system.cpu0.commit.committedInstType_0::SimdAes            0      0.00%     81.41% # Class of committed instruction (Count)
system.cpu0.commit.committedInstType_0::SimdAesMix            0      0.00%     81.41% # Class of committed instruction (Count)
system.cpu0.commit.committedInstType_0::SimdSha1Hash            0      0.00%     81.41% # Class of committed instruction (Count)
system.cpu0.commit.committedInstType_0::SimdSha1Hash2            0      0.00%     81.41% # Class of committed instruction (Count)
system.cpu0.commit.committedInstType_0::SimdSha256Hash            0      0.00%     81.41% # Class of committed instruction (Count)
system.cpu0.commit.committedInstType_0::SimdSha256Hash2            0      0.00%     81.41% # Class of committed instruction (Count)
system.cpu0.commit.committedInstType_0::SimdShaSigma2            0      0.00%     81.41% # Class of committed instruction (Count)
system.cpu0.commit.committedInstType_0::SimdShaSigma3            0      0.00%     81.41% # Class of committed instruction (Count)
system.cpu0.commit.committedInstType_0::SimdPredAlu            0      0.00%     81.41% # Class of committed instruction (Count)
system.cpu0.commit.committedInstType_0::MemRead       149230      0.36%     81.78% # Class of committed instruction (Count)
system.cpu0.commit.committedInstType_0::MemWrite        94908      0.23%     82.01% # Class of committed instruction (Count)
system.cpu0.commit.committedInstType_0::FloatMemRead      6804245     16.53%     98.53% # Class of committed instruction (Count)
system.cpu0.commit.committedInstType_0::FloatMemWrite       603066      1.47%    100.00% # Class of committed instruction (Count)
system.cpu0.commit.committedInstType_0::IprAccess            0      0.00%    100.00% # Class of committed instruction (Count)
system.cpu0.commit.committedInstType_0::InstPrefetch            0      0.00%    100.00% # Class of committed instruction (Count)
system.cpu0.commit.committedInstType_0::total     41164618                       # Class of committed instruction (Count)
system.cpu0.commit.commitEligibleSamples      4093227                       # number cycles where commit BW limit reached (Cycle)
system.cpu0.dcache.demandHits::cpu00.data      4914794                       # number of demand (read+write) hits (Count)
system.cpu0.dcache.demandHits::total          4914794                       # number of demand (read+write) hits (Count)
system.cpu0.dcache.overallHits::cpu00.data      4914794                       # number of overall hits (Count)
system.cpu0.dcache.overallHits::total         4914794                       # number of overall hits (Count)
system.cpu0.dcache.demandMisses::cpu00.data      2792747                       # number of demand (read+write) misses (Count)
system.cpu0.dcache.demandMisses::total        2792747                       # number of demand (read+write) misses (Count)
system.cpu0.dcache.overallMisses::cpu00.data      2792747                       # number of overall misses (Count)
system.cpu0.dcache.overallMisses::total       2792747                       # number of overall misses (Count)
system.cpu0.dcache.demandMissLatency::cpu00.data 387594283476                       # number of demand (read+write) miss ticks (Tick)
system.cpu0.dcache.demandMissLatency::total 387594283476                       # number of demand (read+write) miss ticks (Tick)
system.cpu0.dcache.overallMissLatency::cpu00.data 387594283476                       # number of overall miss ticks (Tick)
system.cpu0.dcache.overallMissLatency::total 387594283476                       # number of overall miss ticks (Tick)
system.cpu0.dcache.demandAccesses::cpu00.data      7707541                       # number of demand (read+write) accesses (Count)
system.cpu0.dcache.demandAccesses::total      7707541                       # number of demand (read+write) accesses (Count)
system.cpu0.dcache.overallAccesses::cpu00.data      7707541                       # number of overall (read+write) accesses (Count)
system.cpu0.dcache.overallAccesses::total      7707541                       # number of overall (read+write) accesses (Count)
system.cpu0.dcache.demandMissRate::cpu00.data     0.362340                       # miss rate for demand accesses (Ratio)
system.cpu0.dcache.demandMissRate::total     0.362340                       # miss rate for demand accesses (Ratio)
system.cpu0.dcache.overallMissRate::cpu00.data     0.362340                       # miss rate for overall accesses (Ratio)
system.cpu0.dcache.overallMissRate::total     0.362340                       # miss rate for overall accesses (Ratio)
system.cpu0.dcache.demandAvgMissLatency::cpu00.data 138786.035210                       # average overall miss latency in ticks ((Tick/Count))
system.cpu0.dcache.demandAvgMissLatency::total 138786.035210                       # average overall miss latency in ticks ((Tick/Count))
system.cpu0.dcache.overallAvgMissLatency::cpu00.data 138786.035210                       # average overall miss latency ((Tick/Count))
system.cpu0.dcache.overallAvgMissLatency::total 138786.035210                       # average overall miss latency ((Tick/Count))
system.cpu0.dcache.blockedCycles::no_mshrs     37857763                       # number of cycles access was blocked (Cycle)
system.cpu0.dcache.blockedCycles::no_targets         7826                       # number of cycles access was blocked (Cycle)
system.cpu0.dcache.blockedCauses::no_mshrs        54570                       # number of times access was blocked (Count)
system.cpu0.dcache.blockedCauses::no_targets           44                       # number of times access was blocked (Count)
system.cpu0.dcache.avgBlocked::no_mshrs    693.746802                       # average number of cycles each access was blocked ((Cycle/Count))
system.cpu0.dcache.avgBlocked::no_targets   177.863636                       # average number of cycles each access was blocked ((Cycle/Count))
system.cpu0.dcache.writebacks::writebacks        83106                       # number of writebacks (Count)
system.cpu0.dcache.writebacks::total            83106                       # number of writebacks (Count)
system.cpu0.dcache.demandMshrHits::cpu00.data      2236319                       # number of demand (read+write) MSHR hits (Count)
system.cpu0.dcache.demandMshrHits::total      2236319                       # number of demand (read+write) MSHR hits (Count)
system.cpu0.dcache.overallMshrHits::cpu00.data      2236319                       # number of overall MSHR hits (Count)
system.cpu0.dcache.overallMshrHits::total      2236319                       # number of overall MSHR hits (Count)
system.cpu0.dcache.demandMshrMisses::cpu00.data       556428                       # number of demand (read+write) MSHR misses (Count)
system.cpu0.dcache.demandMshrMisses::total       556428                       # number of demand (read+write) MSHR misses (Count)
system.cpu0.dcache.overallMshrMisses::cpu00.data       556428                       # number of overall MSHR misses (Count)
system.cpu0.dcache.overallMshrMisses::total       556428                       # number of overall MSHR misses (Count)
system.cpu0.dcache.demandMshrMissLatency::cpu00.data 141823119976                       # number of demand (read+write) MSHR miss ticks (Tick)
system.cpu0.dcache.demandMshrMissLatency::total 141823119976                       # number of demand (read+write) MSHR miss ticks (Tick)
system.cpu0.dcache.overallMshrMissLatency::cpu00.data 141823119976                       # number of overall MSHR miss ticks (Tick)
system.cpu0.dcache.overallMshrMissLatency::total 141823119976                       # number of overall MSHR miss ticks (Tick)
system.cpu0.dcache.demandMshrMissRate::cpu00.data     0.072193                       # mshr miss ratio for demand accesses (Ratio)
system.cpu0.dcache.demandMshrMissRate::total     0.072193                       # mshr miss ratio for demand accesses (Ratio)
system.cpu0.dcache.overallMshrMissRate::cpu00.data     0.072193                       # mshr miss ratio for overall accesses (Ratio)
system.cpu0.dcache.overallMshrMissRate::total     0.072193                       # mshr miss ratio for overall accesses (Ratio)
system.cpu0.dcache.demandAvgMshrMissLatency::cpu00.data 254881.350284                       # average overall mshr miss latency ((Tick/Count))
system.cpu0.dcache.demandAvgMshrMissLatency::total 254881.350284                       # average overall mshr miss latency ((Tick/Count))
system.cpu0.dcache.overallAvgMshrMissLatency::cpu00.data 254881.350284                       # average overall mshr miss latency ((Tick/Count))
system.cpu0.dcache.overallAvgMshrMissLatency::total 254881.350284                       # average overall mshr miss latency ((Tick/Count))
system.cpu0.dcache.replacements                554866                       # number of replacements (Count)
system.cpu0.dcache.LockedRMWReadReq.hits::cpu00.data          397                       # number of LockedRMWReadReq hits (Count)
system.cpu0.dcache.LockedRMWReadReq.hits::total          397                       # number of LockedRMWReadReq hits (Count)
system.cpu0.dcache.LockedRMWReadReq.misses::cpu00.data           41                       # number of LockedRMWReadReq misses (Count)
system.cpu0.dcache.LockedRMWReadReq.misses::total           41                       # number of LockedRMWReadReq misses (Count)
system.cpu0.dcache.LockedRMWReadReq.missLatency::cpu00.data      5587250                       # number of LockedRMWReadReq miss ticks (Tick)
system.cpu0.dcache.LockedRMWReadReq.missLatency::total      5587250                       # number of LockedRMWReadReq miss ticks (Tick)
system.cpu0.dcache.LockedRMWReadReq.accesses::cpu00.data          438                       # number of LockedRMWReadReq accesses(hits+misses) (Count)
system.cpu0.dcache.LockedRMWReadReq.accesses::total          438                       # number of LockedRMWReadReq accesses(hits+misses) (Count)
system.cpu0.dcache.LockedRMWReadReq.missRate::cpu00.data     0.093607                       # miss rate for LockedRMWReadReq accesses (Ratio)
system.cpu0.dcache.LockedRMWReadReq.missRate::total     0.093607                       # miss rate for LockedRMWReadReq accesses (Ratio)
system.cpu0.dcache.LockedRMWReadReq.avgMissLatency::cpu00.data 136274.390244                       # average LockedRMWReadReq miss latency ((Tick/Count))
system.cpu0.dcache.LockedRMWReadReq.avgMissLatency::total 136274.390244                       # average LockedRMWReadReq miss latency ((Tick/Count))
system.cpu0.dcache.LockedRMWReadReq.mshrMisses::cpu00.data           41                       # number of LockedRMWReadReq MSHR misses (Count)
system.cpu0.dcache.LockedRMWReadReq.mshrMisses::total           41                       # number of LockedRMWReadReq MSHR misses (Count)
system.cpu0.dcache.LockedRMWReadReq.mshrMissLatency::cpu00.data     12236253                       # number of LockedRMWReadReq MSHR miss ticks (Tick)
system.cpu0.dcache.LockedRMWReadReq.mshrMissLatency::total     12236253                       # number of LockedRMWReadReq MSHR miss ticks (Tick)
system.cpu0.dcache.LockedRMWReadReq.mshrMissRate::cpu00.data     0.093607                       # mshr miss rate for LockedRMWReadReq accesses (Ratio)
system.cpu0.dcache.LockedRMWReadReq.mshrMissRate::total     0.093607                       # mshr miss rate for LockedRMWReadReq accesses (Ratio)
system.cpu0.dcache.LockedRMWReadReq.avgMshrMissLatency::cpu00.data 298445.195122                       # average LockedRMWReadReq mshr miss latency ((Tick/Count))
system.cpu0.dcache.LockedRMWReadReq.avgMshrMissLatency::total 298445.195122                       # average LockedRMWReadReq mshr miss latency ((Tick/Count))
system.cpu0.dcache.LockedRMWWriteReq.hits::cpu00.data          438                       # number of LockedRMWWriteReq hits (Count)
system.cpu0.dcache.LockedRMWWriteReq.hits::total          438                       # number of LockedRMWWriteReq hits (Count)
system.cpu0.dcache.LockedRMWWriteReq.accesses::cpu00.data          438                       # number of LockedRMWWriteReq accesses(hits+misses) (Count)
system.cpu0.dcache.LockedRMWWriteReq.accesses::total          438                       # number of LockedRMWWriteReq accesses(hits+misses) (Count)
system.cpu0.dcache.ReadReq.hits::cpu00.data      4296490                       # number of ReadReq hits (Count)
system.cpu0.dcache.ReadReq.hits::total        4296490                       # number of ReadReq hits (Count)
system.cpu0.dcache.ReadReq.misses::cpu00.data      2713490                       # number of ReadReq misses (Count)
system.cpu0.dcache.ReadReq.misses::total      2713490                       # number of ReadReq misses (Count)
system.cpu0.dcache.ReadReq.missLatency::cpu00.data 348770349750                       # number of ReadReq miss ticks (Tick)
system.cpu0.dcache.ReadReq.missLatency::total 348770349750                       # number of ReadReq miss ticks (Tick)
system.cpu0.dcache.ReadReq.accesses::cpu00.data      7009980                       # number of ReadReq accesses(hits+misses) (Count)
system.cpu0.dcache.ReadReq.accesses::total      7009980                       # number of ReadReq accesses(hits+misses) (Count)
system.cpu0.dcache.ReadReq.missRate::cpu00.data     0.387090                       # miss rate for ReadReq accesses (Ratio)
system.cpu0.dcache.ReadReq.missRate::total     0.387090                       # miss rate for ReadReq accesses (Ratio)
system.cpu0.dcache.ReadReq.avgMissLatency::cpu00.data 128532.019558                       # average ReadReq miss latency ((Tick/Count))
system.cpu0.dcache.ReadReq.avgMissLatency::total 128532.019558                       # average ReadReq miss latency ((Tick/Count))
system.cpu0.dcache.ReadReq.mshrHits::cpu00.data      2236306                       # number of ReadReq MSHR hits (Count)
system.cpu0.dcache.ReadReq.mshrHits::total      2236306                       # number of ReadReq MSHR hits (Count)
system.cpu0.dcache.ReadReq.mshrMisses::cpu00.data       477184                       # number of ReadReq MSHR misses (Count)
system.cpu0.dcache.ReadReq.mshrMisses::total       477184                       # number of ReadReq MSHR misses (Count)
system.cpu0.dcache.ReadReq.mshrMissLatency::cpu00.data 103039590750                       # number of ReadReq MSHR miss ticks (Tick)
system.cpu0.dcache.ReadReq.mshrMissLatency::total 103039590750                       # number of ReadReq MSHR miss ticks (Tick)
system.cpu0.dcache.ReadReq.mshrMissRate::cpu00.data     0.068072                       # mshr miss rate for ReadReq accesses (Ratio)
system.cpu0.dcache.ReadReq.mshrMissRate::total     0.068072                       # mshr miss rate for ReadReq accesses (Ratio)
system.cpu0.dcache.ReadReq.avgMshrMissLatency::cpu00.data 215932.618759                       # average ReadReq mshr miss latency ((Tick/Count))
system.cpu0.dcache.ReadReq.avgMshrMissLatency::total 215932.618759                       # average ReadReq mshr miss latency ((Tick/Count))
system.cpu0.dcache.WriteReq.hits::cpu00.data       618304                       # number of WriteReq hits (Count)
system.cpu0.dcache.WriteReq.hits::total        618304                       # number of WriteReq hits (Count)
system.cpu0.dcache.WriteReq.misses::cpu00.data        79257                       # number of WriteReq misses (Count)
system.cpu0.dcache.WriteReq.misses::total        79257                       # number of WriteReq misses (Count)
system.cpu0.dcache.WriteReq.missLatency::cpu00.data  38823933726                       # number of WriteReq miss ticks (Tick)
system.cpu0.dcache.WriteReq.missLatency::total  38823933726                       # number of WriteReq miss ticks (Tick)
system.cpu0.dcache.WriteReq.accesses::cpu00.data       697561                       # number of WriteReq accesses(hits+misses) (Count)
system.cpu0.dcache.WriteReq.accesses::total       697561                       # number of WriteReq accesses(hits+misses) (Count)
system.cpu0.dcache.WriteReq.missRate::cpu00.data     0.113620                       # miss rate for WriteReq accesses (Ratio)
system.cpu0.dcache.WriteReq.missRate::total     0.113620                       # miss rate for WriteReq accesses (Ratio)
system.cpu0.dcache.WriteReq.avgMissLatency::cpu00.data 489848.640827                       # average WriteReq miss latency ((Tick/Count))
system.cpu0.dcache.WriteReq.avgMissLatency::total 489848.640827                       # average WriteReq miss latency ((Tick/Count))
system.cpu0.dcache.WriteReq.mshrHits::cpu00.data           13                       # number of WriteReq MSHR hits (Count)
system.cpu0.dcache.WriteReq.mshrHits::total           13                       # number of WriteReq MSHR hits (Count)
system.cpu0.dcache.WriteReq.mshrMisses::cpu00.data        79244                       # number of WriteReq MSHR misses (Count)
system.cpu0.dcache.WriteReq.mshrMisses::total        79244                       # number of WriteReq MSHR misses (Count)
system.cpu0.dcache.WriteReq.mshrMissLatency::cpu00.data  38783529226                       # number of WriteReq MSHR miss ticks (Tick)
system.cpu0.dcache.WriteReq.mshrMissLatency::total  38783529226                       # number of WriteReq MSHR miss ticks (Tick)
system.cpu0.dcache.WriteReq.mshrMissRate::cpu00.data     0.113602                       # mshr miss rate for WriteReq accesses (Ratio)
system.cpu0.dcache.WriteReq.mshrMissRate::total     0.113602                       # mshr miss rate for WriteReq accesses (Ratio)
system.cpu0.dcache.WriteReq.avgMshrMissLatency::cpu00.data 489419.126066                       # average WriteReq mshr miss latency ((Tick/Count))
system.cpu0.dcache.WriteReq.avgMshrMissLatency::total 489419.126066                       # average WriteReq mshr miss latency ((Tick/Count))
system.cpu0.dcache.power_state.pwrStateResidencyTicks::UNDEFINED  57537340500                       # Cumulative time (in ticks) in various power states (Tick)
system.cpu0.dcache.tags.tagsInUse         1022.479831                       # Average ticks per tags in use ((Tick/Count))
system.cpu0.dcache.tags.totalRefs             5472099                       # Total number of references to valid blocks. (Count)
system.cpu0.dcache.tags.sampledRefs            556332                       # Sample count of references to valid blocks. (Count)
system.cpu0.dcache.tags.avgRefs              9.836031                       # Average number of references to valid blocks. ((Count/Count))
system.cpu0.dcache.tags.warmupTick             154000                       # The tick when the warmup percentage was hit. (Tick)
system.cpu0.dcache.tags.occupancies::cpu00.data  1022.479831                       # Average occupied blocks per tick, per requestor ((Count/Tick))
system.cpu0.dcache.tags.avgOccs::cpu00.data     0.998515                       # Average percentage of cache occupancy ((Ratio/Tick))
system.cpu0.dcache.tags.avgOccs::total       0.998515                       # Average percentage of cache occupancy ((Ratio/Tick))
system.cpu0.dcache.tags.occupanciesTaskId::1024         1024                       # Occupied blocks per task id (Count)
system.cpu0.dcache.tags.ageTaskId_1024::0          127                       # Occupied blocks per task id, per block age (Count)
system.cpu0.dcache.tags.ageTaskId_1024::1          896                       # Occupied blocks per task id, per block age (Count)
system.cpu0.dcache.tags.ageTaskId_1024::4            1                       # Occupied blocks per task id, per block age (Count)
system.cpu0.dcache.tags.ratioOccsTaskId::1024            1                       # Ratio of occupied blocks and all blocks, per task id (Ratio)
system.cpu0.dcache.tags.tagAccesses          15973166                       # Number of tag accesses (Count)
system.cpu0.dcache.tags.dataAccesses         15973166                       # Number of data accesses (Count)
system.cpu0.dcache.tags.power_state.pwrStateResidencyTicks::UNDEFINED  57537340500                       # Cumulative time (in ticks) in various power states (Tick)
system.cpu0.decode.idleCycles                 2778439                       # Number of cycles decode is idle (Cycle)
system.cpu0.decode.blockedCycles            221132146                       # Number of cycles decode is blocked (Cycle)
system.cpu0.decode.runCycles                  3916593                       # Number of cycles decode is running (Cycle)
system.cpu0.decode.unblockCycles              1785735                       # Number of cycles decode is unblocking (Cycle)
system.cpu0.decode.squashCycles                 13175                       # Number of cycles decode is squashing (Cycle)
system.cpu0.decode.branchResolved             1368291                       # Number of times decode resolved a branch (Count)
system.cpu0.decode.branchMispred                 1368                       # Number of times decode detected a branch misprediction (Count)
system.cpu0.decode.decodedInsts              41868261                       # Number of instructions handled by decode (Count)
system.cpu0.decode.squashedInsts                 6577                       # Number of squashed instructions handled by decode (Count)
system.cpu0.dtb_walker_cache.blockedCycles::no_mshrs            0                       # number of cycles access was blocked (Cycle)
system.cpu0.dtb_walker_cache.blockedCycles::no_targets            0                       # number of cycles access was blocked (Cycle)
system.cpu0.dtb_walker_cache.blockedCauses::no_mshrs            0                       # number of times access was blocked (Count)
system.cpu0.dtb_walker_cache.blockedCauses::no_targets            0                       # number of times access was blocked (Count)
system.cpu0.dtb_walker_cache.avgBlocked::no_mshrs          nan                       # average number of cycles each access was blocked ((Cycle/Count))
system.cpu0.dtb_walker_cache.avgBlocked::no_targets          nan                       # average number of cycles each access was blocked ((Cycle/Count))
system.cpu0.dtb_walker_cache.replacements            0                       # number of replacements (Count)
system.cpu0.dtb_walker_cache.power_state.pwrStateResidencyTicks::UNDEFINED  57537340500                       # Cumulative time (in ticks) in various power states (Tick)
system.cpu0.dtb_walker_cache.tags.tagsInUse            0                       # Average ticks per tags in use ((Tick/Count))
system.cpu0.dtb_walker_cache.tags.totalRefs            0                       # Total number of references to valid blocks. (Count)
system.cpu0.dtb_walker_cache.tags.sampledRefs            0                       # Sample count of references to valid blocks. (Count)
system.cpu0.dtb_walker_cache.tags.avgRefs          nan                       # Average number of references to valid blocks. ((Count/Count))
system.cpu0.dtb_walker_cache.tags.warmupTick            0                       # The tick when the warmup percentage was hit. (Tick)
system.cpu0.dtb_walker_cache.tags.tagAccesses            0                       # Number of tag accesses (Count)
system.cpu0.dtb_walker_cache.tags.dataAccesses            0                       # Number of data accesses (Count)
system.cpu0.dtb_walker_cache.tags.power_state.pwrStateResidencyTicks::UNDEFINED  57537340500                       # Cumulative time (in ticks) in various power states (Tick)
system.cpu0.fetch.icacheStallCycles           3668916                       # Number of cycles fetch is stalled on an Icache miss (Cycle)
system.cpu0.fetch.insts                      22859253                       # Number of instructions fetch has processed (Count)
system.cpu0.fetch.branches                    4527969                       # Number of branches that fetch encountered (Count)
system.cpu0.fetch.predictedBranches           1399903                       # Number of branches that fetch has predicted taken (Count)
system.cpu0.fetch.cycles                    225926941                       # Number of cycles fetch has run and was not squashing or blocked (Cycle)
system.cpu0.fetch.squashCycles                  29044                       # Number of cycles fetch has spent squashing (Cycle)
system.cpu0.fetch.miscStallCycles                2684                       # Number of cycles fetch has spent waiting on interrupts, or bad addresses, or out of MSHRs (Cycle)
system.cpu0.fetch.pendingTrapStallCycles        12956                       # Number of stall cycles due to pending traps (Cycle)
system.cpu0.fetch.icacheWaitRetryStallCycles           69                       # Number of stall cycles due to full MSHR (Cycle)
system.cpu0.fetch.cacheLines                  3527761                       # Number of cache lines fetched (Count)
system.cpu0.fetch.icacheSquashes                 3379                       # Number of outstanding Icache misses that were squashed (Count)
system.cpu0.fetch.nisnDist::samples         229626088                       # Number of instructions fetched each cycle (Total) (Count)
system.cpu0.fetch.nisnDist::mean             0.182815                       # Number of instructions fetched each cycle (Total) (Count)
system.cpu0.fetch.nisnDist::stdev            1.134437                       # Number of instructions fetched each cycle (Total) (Count)
system.cpu0.fetch.nisnDist::underflows              0      0.00%      0.00% # Number of instructions fetched each cycle (Total) (Count)
system.cpu0.fetch.nisnDist::0               222819215     97.04%     97.04% # Number of instructions fetched each cycle (Total) (Count)
system.cpu0.fetch.nisnDist::1                  486628      0.21%     97.25% # Number of instructions fetched each cycle (Total) (Count)
system.cpu0.fetch.nisnDist::2                  280767      0.12%     97.37% # Number of instructions fetched each cycle (Total) (Count)
system.cpu0.fetch.nisnDist::3                 1168975      0.51%     97.88% # Number of instructions fetched each cycle (Total) (Count)
system.cpu0.fetch.nisnDist::4                   81554      0.04%     97.91% # Number of instructions fetched each cycle (Total) (Count)
system.cpu0.fetch.nisnDist::5                  186289      0.08%     98.00% # Number of instructions fetched each cycle (Total) (Count)
system.cpu0.fetch.nisnDist::6                  176619      0.08%     98.07% # Number of instructions fetched each cycle (Total) (Count)
system.cpu0.fetch.nisnDist::7                  301754      0.13%     98.20% # Number of instructions fetched each cycle (Total) (Count)
system.cpu0.fetch.nisnDist::8                 4124287      1.80%    100.00% # Number of instructions fetched each cycle (Total) (Count)
system.cpu0.fetch.nisnDist::overflows               0      0.00%    100.00% # Number of instructions fetched each cycle (Total) (Count)
system.cpu0.fetch.nisnDist::min_value               0                       # Number of instructions fetched each cycle (Total) (Count)
system.cpu0.fetch.nisnDist::max_value               8                       # Number of instructions fetched each cycle (Total) (Count)
system.cpu0.fetch.nisnDist::total           229626088                       # Number of instructions fetched each cycle (Total) (Count)
system.cpu0.fetch.branchRate                 0.019674                       # Number of branch fetches per cycle (Ratio)
system.cpu0.fetch.rate                       0.099324                       # Number of inst fetches per cycle ((Count/Cycle))
system.cpu0.icache.demandHits::cpu00.inst      3524276                       # number of demand (read+write) hits (Count)
system.cpu0.icache.demandHits::total          3524276                       # number of demand (read+write) hits (Count)
system.cpu0.icache.overallHits::cpu00.inst      3524276                       # number of overall hits (Count)
system.cpu0.icache.overallHits::total         3524276                       # number of overall hits (Count)
system.cpu0.icache.demandMisses::cpu00.inst         3484                       # number of demand (read+write) misses (Count)
system.cpu0.icache.demandMisses::total           3484                       # number of demand (read+write) misses (Count)
system.cpu0.icache.overallMisses::cpu00.inst         3484                       # number of overall misses (Count)
system.cpu0.icache.overallMisses::total          3484                       # number of overall misses (Count)
system.cpu0.icache.demandMissLatency::cpu00.inst    278967248                       # number of demand (read+write) miss ticks (Tick)
system.cpu0.icache.demandMissLatency::total    278967248                       # number of demand (read+write) miss ticks (Tick)
system.cpu0.icache.overallMissLatency::cpu00.inst    278967248                       # number of overall miss ticks (Tick)
system.cpu0.icache.overallMissLatency::total    278967248                       # number of overall miss ticks (Tick)
system.cpu0.icache.demandAccesses::cpu00.inst      3527760                       # number of demand (read+write) accesses (Count)
system.cpu0.icache.demandAccesses::total      3527760                       # number of demand (read+write) accesses (Count)
system.cpu0.icache.overallAccesses::cpu00.inst      3527760                       # number of overall (read+write) accesses (Count)
system.cpu0.icache.overallAccesses::total      3527760                       # number of overall (read+write) accesses (Count)
system.cpu0.icache.demandMissRate::cpu00.inst     0.000988                       # miss rate for demand accesses (Ratio)
system.cpu0.icache.demandMissRate::total     0.000988                       # miss rate for demand accesses (Ratio)
system.cpu0.icache.overallMissRate::cpu00.inst     0.000988                       # miss rate for overall accesses (Ratio)
system.cpu0.icache.overallMissRate::total     0.000988                       # miss rate for overall accesses (Ratio)
system.cpu0.icache.demandAvgMissLatency::cpu00.inst 80070.966705                       # average overall miss latency in ticks ((Tick/Count))
system.cpu0.icache.demandAvgMissLatency::total 80070.966705                       # average overall miss latency in ticks ((Tick/Count))
system.cpu0.icache.overallAvgMissLatency::cpu00.inst 80070.966705                       # average overall miss latency ((Tick/Count))
system.cpu0.icache.overallAvgMissLatency::total 80070.966705                       # average overall miss latency ((Tick/Count))
system.cpu0.icache.blockedCycles::no_mshrs         4780                       # number of cycles access was blocked (Cycle)
system.cpu0.icache.blockedCycles::no_targets            0                       # number of cycles access was blocked (Cycle)
system.cpu0.icache.blockedCauses::no_mshrs           15                       # number of times access was blocked (Count)
system.cpu0.icache.blockedCauses::no_targets            0                       # number of times access was blocked (Count)
system.cpu0.icache.avgBlocked::no_mshrs    318.666667                       # average number of cycles each access was blocked ((Cycle/Count))
system.cpu0.icache.avgBlocked::no_targets          nan                       # average number of cycles each access was blocked ((Cycle/Count))
system.cpu0.icache.writebacks::writebacks         2223                       # number of writebacks (Count)
system.cpu0.icache.writebacks::total             2223                       # number of writebacks (Count)
system.cpu0.icache.demandMshrHits::cpu00.inst          747                       # number of demand (read+write) MSHR hits (Count)
system.cpu0.icache.demandMshrHits::total          747                       # number of demand (read+write) MSHR hits (Count)
system.cpu0.icache.overallMshrHits::cpu00.inst          747                       # number of overall MSHR hits (Count)
system.cpu0.icache.overallMshrHits::total          747                       # number of overall MSHR hits (Count)
system.cpu0.icache.demandMshrMisses::cpu00.inst         2737                       # number of demand (read+write) MSHR misses (Count)
system.cpu0.icache.demandMshrMisses::total         2737                       # number of demand (read+write) MSHR misses (Count)
system.cpu0.icache.overallMshrMisses::cpu00.inst         2737                       # number of overall MSHR misses (Count)
system.cpu0.icache.overallMshrMisses::total         2737                       # number of overall MSHR misses (Count)
system.cpu0.icache.demandMshrMissLatency::cpu00.inst    227599249                       # number of demand (read+write) MSHR miss ticks (Tick)
system.cpu0.icache.demandMshrMissLatency::total    227599249                       # number of demand (read+write) MSHR miss ticks (Tick)
system.cpu0.icache.overallMshrMissLatency::cpu00.inst    227599249                       # number of overall MSHR miss ticks (Tick)
system.cpu0.icache.overallMshrMissLatency::total    227599249                       # number of overall MSHR miss ticks (Tick)
system.cpu0.icache.demandMshrMissRate::cpu00.inst     0.000776                       # mshr miss ratio for demand accesses (Ratio)
system.cpu0.icache.demandMshrMissRate::total     0.000776                       # mshr miss ratio for demand accesses (Ratio)
system.cpu0.icache.overallMshrMissRate::cpu00.inst     0.000776                       # mshr miss ratio for overall accesses (Ratio)
system.cpu0.icache.overallMshrMissRate::total     0.000776                       # mshr miss ratio for overall accesses (Ratio)
system.cpu0.icache.demandAvgMshrMissLatency::cpu00.inst 83156.466569                       # average overall mshr miss latency ((Tick/Count))
system.cpu0.icache.demandAvgMshrMissLatency::total 83156.466569                       # average overall mshr miss latency ((Tick/Count))
system.cpu0.icache.overallAvgMshrMissLatency::cpu00.inst 83156.466569                       # average overall mshr miss latency ((Tick/Count))
system.cpu0.icache.overallAvgMshrMissLatency::total 83156.466569                       # average overall mshr miss latency ((Tick/Count))
system.cpu0.icache.replacements                  2223                       # number of replacements (Count)
system.cpu0.icache.ReadReq.hits::cpu00.inst      3524276                       # number of ReadReq hits (Count)
system.cpu0.icache.ReadReq.hits::total        3524276                       # number of ReadReq hits (Count)
system.cpu0.icache.ReadReq.misses::cpu00.inst         3484                       # number of ReadReq misses (Count)
system.cpu0.icache.ReadReq.misses::total         3484                       # number of ReadReq misses (Count)
system.cpu0.icache.ReadReq.missLatency::cpu00.inst    278967248                       # number of ReadReq miss ticks (Tick)
system.cpu0.icache.ReadReq.missLatency::total    278967248                       # number of ReadReq miss ticks (Tick)
system.cpu0.icache.ReadReq.accesses::cpu00.inst      3527760                       # number of ReadReq accesses(hits+misses) (Count)
system.cpu0.icache.ReadReq.accesses::total      3527760                       # number of ReadReq accesses(hits+misses) (Count)
system.cpu0.icache.ReadReq.missRate::cpu00.inst     0.000988                       # miss rate for ReadReq accesses (Ratio)
system.cpu0.icache.ReadReq.missRate::total     0.000988                       # miss rate for ReadReq accesses (Ratio)
system.cpu0.icache.ReadReq.avgMissLatency::cpu00.inst 80070.966705                       # average ReadReq miss latency ((Tick/Count))
system.cpu0.icache.ReadReq.avgMissLatency::total 80070.966705                       # average ReadReq miss latency ((Tick/Count))
system.cpu0.icache.ReadReq.mshrHits::cpu00.inst          747                       # number of ReadReq MSHR hits (Count)
system.cpu0.icache.ReadReq.mshrHits::total          747                       # number of ReadReq MSHR hits (Count)
system.cpu0.icache.ReadReq.mshrMisses::cpu00.inst         2737                       # number of ReadReq MSHR misses (Count)
system.cpu0.icache.ReadReq.mshrMisses::total         2737                       # number of ReadReq MSHR misses (Count)
system.cpu0.icache.ReadReq.mshrMissLatency::cpu00.inst    227599249                       # number of ReadReq MSHR miss ticks (Tick)
system.cpu0.icache.ReadReq.mshrMissLatency::total    227599249                       # number of ReadReq MSHR miss ticks (Tick)
system.cpu0.icache.ReadReq.mshrMissRate::cpu00.inst     0.000776                       # mshr miss rate for ReadReq accesses (Ratio)
system.cpu0.icache.ReadReq.mshrMissRate::total     0.000776                       # mshr miss rate for ReadReq accesses (Ratio)
system.cpu0.icache.ReadReq.avgMshrMissLatency::cpu00.inst 83156.466569                       # average ReadReq mshr miss latency ((Tick/Count))
system.cpu0.icache.ReadReq.avgMshrMissLatency::total 83156.466569                       # average ReadReq mshr miss latency ((Tick/Count))
system.cpu0.icache.power_state.pwrStateResidencyTicks::UNDEFINED  57537340500                       # Cumulative time (in ticks) in various power states (Tick)
system.cpu0.icache.tags.tagsInUse          511.674006                       # Average ticks per tags in use ((Tick/Count))
system.cpu0.icache.tags.totalRefs             3527012                       # Total number of references to valid blocks. (Count)
system.cpu0.icache.tags.sampledRefs              2736                       # Sample count of references to valid blocks. (Count)
system.cpu0.icache.tags.avgRefs           1289.112573                       # Average number of references to valid blocks. ((Count/Count))
system.cpu0.icache.tags.warmupTick              80000                       # The tick when the warmup percentage was hit. (Tick)
system.cpu0.icache.tags.occupancies::cpu00.inst   511.674006                       # Average occupied blocks per tick, per requestor ((Count/Tick))
system.cpu0.icache.tags.avgOccs::cpu00.inst     0.999363                       # Average percentage of cache occupancy ((Ratio/Tick))
system.cpu0.icache.tags.avgOccs::total       0.999363                       # Average percentage of cache occupancy ((Ratio/Tick))
system.cpu0.icache.tags.occupanciesTaskId::1024          511                       # Occupied blocks per task id (Count)
system.cpu0.icache.tags.ageTaskId_1024::0          101                       # Occupied blocks per task id, per block age (Count)
system.cpu0.icache.tags.ageTaskId_1024::1           82                       # Occupied blocks per task id, per block age (Count)
system.cpu0.icache.tags.ageTaskId_1024::4          328                       # Occupied blocks per task id, per block age (Count)
system.cpu0.icache.tags.ratioOccsTaskId::1024     0.998047                       # Ratio of occupied blocks and all blocks, per task id (Ratio)
system.cpu0.icache.tags.tagAccesses           7058256                       # Number of tag accesses (Count)
system.cpu0.icache.tags.dataAccesses          7058256                       # Number of data accesses (Count)
system.cpu0.icache.tags.power_state.pwrStateResidencyTicks::UNDEFINED  57537340500                       # Cumulative time (in ticks) in various power states (Tick)
system.cpu0.iew.idleCycles                          0                       # Number of cycles IEW is idle (Cycle)
system.cpu0.iew.squashCycles                    13175                       # Number of cycles IEW is squashing (Cycle)
system.cpu0.iew.blockCycles                  29287363                       # Number of cycles IEW is blocking (Cycle)
system.cpu0.iew.unblockCycles                41868631                       # Number of cycles IEW is unblocking (Cycle)
system.cpu0.iew.dispatchedInsts              41771453                       # Number of instructions dispatched to IQ (Count)
system.cpu0.iew.dispSquashedInsts                1088                       # Number of squashed instructions skipped by dispatch (Count)
system.cpu0.iew.dispLoadInsts                 7041297                       # Number of dispatched load instructions (Count)
system.cpu0.iew.dispStoreInsts                 722720                       # Number of dispatched store instructions (Count)
system.cpu0.iew.dispNonSpecInsts                  765                       # Number of dispatched non-speculative instructions (Count)
system.cpu0.iew.iqFullEvents                   253297                       # Number of times the IQ has become full, causing a stall (Count)
system.cpu0.iew.lsqFullEvents                41582455                       # Number of times the LSQ has become full, causing a stall (Count)
system.cpu0.iew.memOrderViolationEvents           267                       # Number of memory order violations (Count)
system.cpu0.iew.predictedTakenIncorrect          2852                       # Number of branches that were predicted taken incorrectly (Count)
system.cpu0.iew.predictedNotTakenIncorrect         8411                       # Number of branches that were predicted not taken incorrectly (Count)
system.cpu0.iew.branchMispredicts               11263                       # Number of branch mispredicts detected at execute (Count)
system.cpu0.iew.instsToCommit                41595592                       # Cumulative count of insts sent to commit (Count)
system.cpu0.iew.writebackCount               41586269                       # Cumulative count of insts written-back (Count)
system.cpu0.iew.producerInst                 30165617                       # Number of instructions producing a value (Count)
system.cpu0.iew.consumerInst                 50249002                       # Number of instructions consuming a value (Count)
system.cpu0.iew.wbRate                       0.180693                       # Insts written-back per cycle ((Count/Cycle))
system.cpu0.iew.wbFanout                     0.600323                       # Average fanout of values written-back ((Count/Count))
system.cpu0.interrupts.clk_domain.clock          4000                       # Clock period in ticks (Tick)
system.cpu0.itb_walker_cache.blockedCycles::no_mshrs            0                       # number of cycles access was blocked (Cycle)
system.cpu0.itb_walker_cache.blockedCycles::no_targets            0                       # number of cycles access was blocked (Cycle)
system.cpu0.itb_walker_cache.blockedCauses::no_mshrs            0                       # number of times access was blocked (Count)
system.cpu0.itb_walker_cache.blockedCauses::no_targets            0                       # number of times access was blocked (Count)
system.cpu0.itb_walker_cache.avgBlocked::no_mshrs          nan                       # average number of cycles each access was blocked ((Cycle/Count))
system.cpu0.itb_walker_cache.avgBlocked::no_targets          nan                       # average number of cycles each access was blocked ((Cycle/Count))
system.cpu0.itb_walker_cache.replacements            0                       # number of replacements (Count)
system.cpu0.itb_walker_cache.power_state.pwrStateResidencyTicks::UNDEFINED  57537340500                       # Cumulative time (in ticks) in various power states (Tick)
system.cpu0.itb_walker_cache.tags.tagsInUse            0                       # Average ticks per tags in use ((Tick/Count))
[...]
system.membus.snoopFanout::92                       0      0.00%    100.00% # Request fanout histogram (Count)
system.membus.snoopFanout::93                       0      0.00%    100.00% # Request fanout histogram (Count)
system.membus.snoopFanout::94                       0      0.00%    100.00% # Request fanout histogram (Count)
system.membus.snoopFanout::95                       0      0.00%    100.00% # Request fanout histogram (Count)
system.membus.snoopFanout::96                       0      0.00%    100.00% # Request fanout histogram (Count)
system.membus.snoopFanout::97                       0      0.00%    100.00% # Request fanout histogram (Count)
system.membus.snoopFanout::98                       0      0.00%    100.00% # Request fanout histogram (Count)
system.membus.snoopFanout::99                       0      0.00%    100.00% # Request fanout histogram (Count)
system.membus.snoopFanout::100                      0      0.00%    100.00% # Request fanout histogram (Count)
system.membus.snoopFanout::101                      0      0.00%    100.00% # Request fanout histogram (Count)
system.membus.snoopFanout::102                      0      0.00%    100.00% # Request fanout histogram (Count)
system.membus.snoopFanout::103                      0      0.00%    100.00% # Request fanout histogram (Count)
system.membus.snoopFanout::104                      0      0.00%    100.00% # Request fanout histogram (Count)
system.membus.snoopFanout::105                      0      0.00%    100.00% # Request fanout histogram (Count)
system.membus.snoopFanout::106                      0      0.00%    100.00% # Request fanout histogram (Count)
system.membus.snoopFanout::107                      0      0.00%    100.00% # Request fanout histogram (Count)
system.membus.snoopFanout::108                      0      0.00%    100.00% # Request fanout histogram (Count)
system.membus.snoopFanout::109                      0      0.00%    100.00% # Request fanout histogram (Count)
system.membus.snoopFanout::110                      0      0.00%    100.00% # Request fanout histogram (Count)
system.membus.snoopFanout::111                      0      0.00%    100.00% # Request fanout histogram (Count)
system.membus.snoopFanout::112                      0      0.00%    100.00% # Request fanout histogram (Count)
system.membus.snoopFanout::113                      0      0.00%    100.00% # Request fanout histogram (Count)
system.membus.snoopFanout::114                      0      0.00%    100.00% # Request fanout histogram (Count)
system.membus.snoopFanout::115                      0      0.00%    100.00% # Request fanout histogram (Count)
system.membus.snoopFanout::116                      0      0.00%    100.00% # Request fanout histogram (Count)
system.membus.snoopFanout::117                      0      0.00%    100.00% # Request fanout histogram (Count)
system.membus.snoopFanout::118                      0      0.00%    100.00% # Request fanout histogram (Count)
system.membus.snoopFanout::119                      0      0.00%    100.00% # Request fanout histogram (Count)
system.membus.snoopFanout::120                      0      0.00%    100.00% # Request fanout histogram (Count)
system.membus.snoopFanout::121                      0      0.00%    100.00% # Request fanout histogram (Count)
system.membus.snoopFanout::122                      0      0.00%    100.00% # Request fanout histogram (Count)
system.membus.snoopFanout::123                      0      0.00%    100.00% # Request fanout histogram (Count)
system.membus.snoopFanout::124                      0      0.00%    100.00% # Request fanout histogram (Count)
system.membus.snoopFanout::125                      0      0.00%    100.00% # Request fanout histogram (Count)
system.membus.snoopFanout::126                      0      0.00%    100.00% # Request fanout histogram (Count)
system.membus.snoopFanout::127                      0      0.00%    100.00% # Request fanout histogram (Count)
system.membus.snoopFanout::128                      0      0.00%    100.00% # Request fanout histogram (Count)
system.membus.snoopFanout::overflows                0      0.00%    100.00% # Request fanout histogram (Count)
system.membus.snoopFanout::min_value                0                       # Request fanout histogram (Count)
system.membus.snoopFanout::max_value               35                       # Request fanout histogram (Count)
system.membus.snoopFanout::total              9796204                       # Request fanout histogram (Count)
system.membus.power_state.pwrStateResidencyTicks::UNDEFINED  57537340500                       # Cumulative time (in ticks) in various power states (Tick)
system.membus.reqLayer64.occupancy        26859038500                       # Layer occupancy (ticks) (Tick)
system.membus.reqLayer64.utilization              0.5                       # Layer utilization (Ratio)
system.membus.respLayer1.occupancy           13929000                       # Layer occupancy (ticks) (Tick)
system.membus.respLayer1.utilization              0.0                       # Layer utilization (Ratio)
system.membus.respLayer101.occupancy           368500                       # Layer occupancy (ticks) (Tick)
system.membus.respLayer101.utilization            0.0                       # Layer utilization (Ratio)
system.membus.respLayer102.occupancy        861708904                       # Layer occupancy (ticks) (Tick)
system.membus.respLayer102.utilization            0.0                       # Layer utilization (Ratio)
system.membus.respLayer106.occupancy           341500                       # Layer occupancy (ticks) (Tick)
system.membus.respLayer106.utilization            0.0                       # Layer utilization (Ratio)
system.membus.respLayer107.occupancy        861774670                       # Layer occupancy (ticks) (Tick)
system.membus.respLayer107.utilization            0.0                       # Layer utilization (Ratio)
system.membus.respLayer11.occupancy            660750                       # Layer occupancy (ticks) (Tick)
system.membus.respLayer11.utilization             0.0                       # Layer utilization (Ratio)
system.membus.respLayer111.occupancy           357500                       # Layer occupancy (ticks) (Tick)
system.membus.respLayer111.utilization            0.0                       # Layer utilization (Ratio)
system.membus.respLayer112.occupancy        861652922                       # Layer occupancy (ticks) (Tick)
system.membus.respLayer112.utilization            0.0                       # Layer utilization (Ratio)
system.membus.respLayer116.occupancy           341250                       # Layer occupancy (ticks) (Tick)
system.membus.respLayer116.utilization            0.0                       # Layer utilization (Ratio)
system.membus.respLayer117.occupancy        861678131                       # Layer occupancy (ticks) (Tick)
system.membus.respLayer117.utilization            0.0                       # Layer utilization (Ratio)
system.membus.respLayer12.occupancy         862056694                       # Layer occupancy (ticks) (Tick)
system.membus.respLayer12.utilization             0.0                       # Layer utilization (Ratio)
system.membus.respLayer121.occupancy           324500                       # Layer occupancy (ticks) (Tick)
system.membus.respLayer121.utilization            0.0                       # Layer utilization (Ratio)
system.membus.respLayer122.occupancy        861720429                       # Layer occupancy (ticks) (Tick)
system.membus.respLayer122.utilization            0.0                       # Layer utilization (Ratio)
system.membus.respLayer126.occupancy           342000                       # Layer occupancy (ticks) (Tick)
system.membus.respLayer126.utilization            0.0                       # Layer utilization (Ratio)
system.membus.respLayer127.occupancy        861788420                       # Layer occupancy (ticks) (Tick)
system.membus.respLayer127.utilization            0.0                       # Layer utilization (Ratio)
system.membus.respLayer131.occupancy           325750                       # Layer occupancy (ticks) (Tick)
system.membus.respLayer131.utilization            0.0                       # Layer utilization (Ratio)
system.membus.respLayer132.occupancy        861661927                       # Layer occupancy (ticks) (Tick)
system.membus.respLayer132.utilization            0.0                       # Layer utilization (Ratio)
system.membus.respLayer136.occupancy           341750                       # Layer occupancy (ticks) (Tick)
system.membus.respLayer136.utilization            0.0                       # Layer utilization (Ratio)
system.membus.respLayer137.occupancy        861742691                       # Layer occupancy (ticks) (Tick)
system.membus.respLayer137.utilization            0.0                       # Layer utilization (Ratio)
system.membus.respLayer141.occupancy           326500                       # Layer occupancy (ticks) (Tick)
system.membus.respLayer141.utilization            0.0                       # Layer utilization (Ratio)
system.membus.respLayer142.occupancy        861708209                       # Layer occupancy (ticks) (Tick)
system.membus.respLayer142.utilization            0.0                       # Layer utilization (Ratio)
system.membus.respLayer146.occupancy           324500                       # Layer occupancy (ticks) (Tick)
system.membus.respLayer146.utilization            0.0                       # Layer utilization (Ratio)
system.membus.respLayer147.occupancy        861769432                       # Layer occupancy (ticks) (Tick)
system.membus.respLayer147.utilization            0.0                       # Layer utilization (Ratio)
system.membus.respLayer151.occupancy           325000                       # Layer occupancy (ticks) (Tick)
system.membus.respLayer151.utilization            0.0                       # Layer utilization (Ratio)
system.membus.respLayer152.occupancy        861657198                       # Layer occupancy (ticks) (Tick)
system.membus.respLayer152.utilization            0.0                       # Layer utilization (Ratio)
system.membus.respLayer156.occupancy           324000                       # Layer occupancy (ticks) (Tick)
system.membus.respLayer156.utilization            0.0                       # Layer utilization (Ratio)
system.membus.respLayer157.occupancy        861663943                       # Layer occupancy (ticks) (Tick)
system.membus.respLayer157.utilization            0.0                       # Layer utilization (Ratio)
system.membus.respLayer16.occupancy            621250                       # Layer occupancy (ticks) (Tick)
system.membus.respLayer16.utilization             0.0                       # Layer utilization (Ratio)
system.membus.respLayer17.occupancy         862072687                       # Layer occupancy (ticks) (Tick)
system.membus.respLayer17.utilization             0.0                       # Layer utilization (Ratio)
system.membus.respLayer2.occupancy         2844889211                       # Layer occupancy (ticks) (Tick)
system.membus.respLayer2.utilization              0.0                       # Layer utilization (Ratio)
system.membus.respLayer21.occupancy            323500                       # Layer occupancy (ticks) (Tick)
system.membus.respLayer21.utilization             0.0                       # Layer utilization (Ratio)
system.membus.respLayer22.occupancy         861682422                       # Layer occupancy (ticks) (Tick)
system.membus.respLayer22.utilization             0.0                       # Layer utilization (Ratio)
system.membus.respLayer26.occupancy            339500                       # Layer occupancy (ticks) (Tick)
system.membus.respLayer26.utilization             0.0                       # Layer utilization (Ratio)
system.membus.respLayer27.occupancy         861734416                       # Layer occupancy (ticks) (Tick)
system.membus.respLayer27.utilization             0.0                       # Layer utilization (Ratio)
system.membus.respLayer31.occupancy            350750                       # Layer occupancy (ticks) (Tick)
system.membus.respLayer31.utilization             0.0                       # Layer utilization (Ratio)
system.membus.respLayer32.occupancy         861667402                       # Layer occupancy (ticks) (Tick)
system.membus.respLayer32.utilization             0.0                       # Layer utilization (Ratio)
system.membus.respLayer36.occupancy            323750                       # Layer occupancy (ticks) (Tick)
system.membus.respLayer36.utilization             0.0                       # Layer utilization (Ratio)
system.membus.respLayer37.occupancy         861635611                       # Layer occupancy (ticks) (Tick)
system.membus.respLayer37.utilization             0.0                       # Layer utilization (Ratio)
system.membus.respLayer41.occupancy            323000                       # Layer occupancy (ticks) (Tick)
system.membus.respLayer41.utilization             0.0                       # Layer utilization (Ratio)
system.membus.respLayer42.occupancy         861681097                       # Layer occupancy (ticks) (Tick)
system.membus.respLayer42.utilization             0.0                       # Layer utilization (Ratio)
system.membus.respLayer46.occupancy            325000                       # Layer occupancy (ticks) (Tick)
system.membus.respLayer46.utilization             0.0                       # Layer utilization (Ratio)
system.membus.respLayer47.occupancy         861730144                       # Layer occupancy (ticks) (Tick)
system.membus.respLayer47.utilization             0.0                       # Layer utilization (Ratio)
system.membus.respLayer51.occupancy            324000                       # Layer occupancy (ticks) (Tick)
system.membus.respLayer51.utilization             0.0                       # Layer utilization (Ratio)
system.membus.respLayer52.occupancy         861622417                       # Layer occupancy (ticks) (Tick)
system.membus.respLayer52.utilization             0.0                       # Layer utilization (Ratio)
system.membus.respLayer56.occupancy            324750                       # Layer occupancy (ticks) (Tick)
system.membus.respLayer56.utilization             0.0                       # Layer utilization (Ratio)
system.membus.respLayer57.occupancy         861632662                       # Layer occupancy (ticks) (Tick)
system.membus.respLayer57.utilization             0.0                       # Layer utilization (Ratio)
system.membus.respLayer6.occupancy             665749                       # Layer occupancy (ticks) (Tick)
system.membus.respLayer6.utilization              0.0                       # Layer utilization (Ratio)
system.membus.respLayer61.occupancy            336750                       # Layer occupancy (ticks) (Tick)
system.membus.respLayer61.utilization             0.0                       # Layer utilization (Ratio)
system.membus.respLayer62.occupancy         861686615                       # Layer occupancy (ticks) (Tick)
system.membus.respLayer62.utilization             0.0                       # Layer utilization (Ratio)
system.membus.respLayer66.occupancy            323750                       # Layer occupancy (ticks) (Tick)
system.membus.respLayer66.utilization             0.0                       # Layer utilization (Ratio)
system.membus.respLayer67.occupancy         861738684                       # Layer occupancy (ticks) (Tick)
system.membus.respLayer67.utilization             0.0                       # Layer utilization (Ratio)
system.membus.respLayer7.occupancy          862325427                       # Layer occupancy (ticks) (Tick)
system.membus.respLayer7.utilization              0.0                       # Layer utilization (Ratio)
system.membus.respLayer71.occupancy            323000                       # Layer occupancy (ticks) (Tick)
system.membus.respLayer71.utilization             0.0                       # Layer utilization (Ratio)
system.membus.respLayer72.occupancy         861627877                       # Layer occupancy (ticks) (Tick)
system.membus.respLayer72.utilization             0.0                       # Layer utilization (Ratio)
system.membus.respLayer76.occupancy            323750                       # Layer occupancy (ticks) (Tick)
system.membus.respLayer76.utilization             0.0                       # Layer utilization (Ratio)
system.membus.respLayer77.occupancy         861624691                       # Layer occupancy (ticks) (Tick)
system.membus.respLayer77.utilization             0.0                       # Layer utilization (Ratio)
system.membus.respLayer81.occupancy            323500                       # Layer occupancy (ticks) (Tick)
system.membus.respLayer81.utilization             0.0                       # Layer utilization (Ratio)
system.membus.respLayer82.occupancy         861699670                       # Layer occupancy (ticks) (Tick)
system.membus.respLayer82.utilization             0.0                       # Layer utilization (Ratio)
system.membus.respLayer86.occupancy            325500                       # Layer occupancy (ticks) (Tick)
system.membus.respLayer86.utilization             0.0                       # Layer utilization (Ratio)
system.membus.respLayer87.occupancy         861729176                       # Layer occupancy (ticks) (Tick)
system.membus.respLayer87.utilization             0.0                       # Layer utilization (Ratio)
system.membus.respLayer91.occupancy            324000                       # Layer occupancy (ticks) (Tick)
system.membus.respLayer91.utilization             0.0                       # Layer utilization (Ratio)
system.membus.respLayer92.occupancy         861631643                       # Layer occupancy (ticks) (Tick)
system.membus.respLayer92.utilization             0.0                       # Layer utilization (Ratio)
system.membus.respLayer96.occupancy            361750                       # Layer occupancy (ticks) (Tick)
system.membus.respLayer96.utilization             0.0                       # Layer utilization (Ratio)
system.membus.respLayer97.occupancy         861642427                       # Layer occupancy (ticks) (Tick)
system.membus.respLayer97.utilization             0.0                       # Layer utilization (Ratio)
system.membus.snoop_filter.totRequests       16547343                       # Total number of requests made to the snoop filter. (Count)
system.membus.snoop_filter.hitSingleRequests      6750468                       # Number of requests hitting in the snoop filter with a single holder of the requested data. (Count)
system.membus.snoop_filter.hitMultiRequests        49716                       # Number of requests hitting in the snoop filter with multiple (>1) holders of the requested data. (Count)
system.membus.snoop_filter.totSnoops                0                       # Total number of snoops made to the snoop filter. (Count)
system.membus.snoop_filter.hitSingleSnoops            0                       # Number of snoops hitting in the snoop filter with a single holder of the requested data. (Count)
system.membus.snoop_filter.hitMultiSnoops            0                       # Number of snoops hitting in the snoop filter with multiple (>1) holders of the requested data. (Count)
system.voltage_domain.voltage                       1                       # Voltage in Volts (Volt)
system.workload.inst.arm                            0                       # number of arm instructions executed (Count)
system.workload.inst.quiesce                        0                       # number of quiesce instructions executed (Count)

---------- End Simulation Statistics   ----------
