gem5 Simulator System.  https://www.gem5.org
gem5 is copyrighted software; use the --copyright option for details.

gem5 version 22.0.0.2
gem5 compiled Aug  1 2022 08:47:18
gem5 started Aug  2 2022 04:20:47
gem5 executing on codespaces-4933b6, pid 22268
command line: ../gem5/build/X86/gem5.opt --outdir=./test1/test se.py --cpu-type DerivO3CPU -n 8 --cpu-clock 3GHz --mem-type HBM_2000_4H_1x64 --mem-channels 2 --caches --l2cache --cmd ./workload/stream_omp.1M_1T

info: Standard input is not a terminal, disabling listeners.
