
---------- Begin Simulation Statistics ----------
simSeconds                                   0.039695                       # Number of seconds simulated (Second)
simTicks                                  39695445500                       # Number of ticks simulated (Tick)
finalTick                                 39695445500                       # Number of ticks from beginning of simulation (restored from checkpoints and never reset) (Tick)
simFreq                                  1000000000000                       # The number of ticks per simulated second ((Tick/Second))
hostSeconds                                   1736.28                       # Real time elapsed on the host (Second)
hostTickRate                                 22862293                       # The number of ticks simulated per host second (ticks/s) ((Tick/Second))
hostMemory                                    1346000                       # Number of bytes of host memory used (Byte)
simInsts                                    187394458                       # Number of instructions simulated (Count)
simOps                                      328714756                       # Number of ops (including micro ops) simulated (Count)
hostInstRate                                   107928                       # Simulator instruction rate (inst/s) ((Count/Second))
hostOpRate                                     189321                       # Simulator op (including micro ops) rate (op/s) ((Count/Second))
system.clk_domain.clock                          1000                       # Clock period in ticks (Tick)
system.cpu0.numCycles                       158781783                       # Number of cpu cycles simulated (Cycle)
system.cpu0.numWorkItemsStarted                     0                       # Number of work items this cpu started (Count)
system.cpu0.numWorkItemsCompleted                   0                       # Number of work items this cpu completed (Count)
system.cpu0.instsAdded                       47129364                       # Number of instructions added to the IQ (excludes non-spec) (Count)
system.cpu0.nonSpecInstsAdded                    1412                       # Number of non-speculative instructions added to the IQ (Count)
system.cpu0.instsIssued                      47153870                       # Number of instructions issued (Count)
system.cpu0.squashedInstsIssued                  2059                       # Number of squashed instructions issued (Count)
system.cpu0.squashedInstsExamined              583639                       # Number of squashed instructions iterated over during squash; mainly for profiling (Count)
system.cpu0.squashedOperandsExamined           779693                       # Number of squashed operands that are examined and possibly removed from graph (Count)
system.cpu0.squashedNonSpecRemoved                296                       # Number of squashed non-spec instructions that were removed (Count)
system.cpu0.numIssuedDist::samples          158336890                       # Number of insts issued each cycle (Count)
system.cpu0.numIssuedDist::mean              0.297807                       # Number of insts issued each cycle (Count)
system.cpu0.numIssuedDist::stdev             1.072954                       # Number of insts issued each cycle (Count)
system.cpu0.numIssuedDist::underflows               0      0.00%      0.00% # Number of insts issued each cycle (Count)
system.cpu0.numIssuedDist::0                142451685     89.97%     89.97% # Number of insts issued each cycle (Count)
system.cpu0.numIssuedDist::1                  4755294      3.00%     92.97% # Number of insts issued each cycle (Count)
system.cpu0.numIssuedDist::2                  3246067      2.05%     95.02% # Number of insts issued each cycle (Count)
system.cpu0.numIssuedDist::3                  2073121      1.31%     96.33% # Number of insts issued each cycle (Count)
system.cpu0.numIssuedDist::4                  2611360      1.65%     97.98% # Number of insts issued each cycle (Count)
system.cpu0.numIssuedDist::5                  1048671      0.66%     98.64% # Number of insts issued each cycle (Count)
system.cpu0.numIssuedDist::6                  1196643      0.76%     99.40% # Number of insts issued each cycle (Count)
system.cpu0.numIssuedDist::7                   813966      0.51%     99.91% # Number of insts issued each cycle (Count)
system.cpu0.numIssuedDist::8                   140083      0.09%    100.00% # Number of insts issued each cycle (Count)
system.cpu0.numIssuedDist::overflows                0      0.00%    100.00% # Number of insts issued each cycle (Count)
system.cpu0.numIssuedDist::min_value                0                       # Number of insts issued each cycle (Count)
system.cpu0.numIssuedDist::max_value                8                       # Number of insts issued each cycle (Count)
system.cpu0.numIssuedDist::total            158336890                       # Number of insts issued each cycle (Count)
system.cpu0.statFuBusy::No_OpClass                  0      0.00%      0.00% # attempts to use FU when none available (Count)
system.cpu0.statFuBusy::IntAlu                  13578      1.95%      1.95% # attempts to use FU when none available (Count)
system.cpu0.statFuBusy::IntMult                     0      0.00%      1.95% # attempts to use FU when none available (Count)
system.cpu0.statFuBusy::IntDiv                      0      0.00%      1.95% # attempts to use FU when none available (Count)
system.cpu0.statFuBusy::FloatAdd                    0      0.00%      1.95% # attempts to use FU when none available (Count)
system.cpu0.statFuBusy::FloatCmp                    0      0.00%      1.95% # attempts to use FU when none available (Count)
system.cpu0.statFuBusy::FloatCvt                    0      0.00%      1.95% # attempts to use FU when none available (Count)
system.cpu0.statFuBusy::FloatMult                   0      0.00%      1.95% # attempts to use FU when none available (Count)
system.cpu0.statFuBusy::FloatMultAcc                0      0.00%      1.95% # attempts to use FU when none available (Count)
system.cpu0.statFuBusy::FloatDiv                    0      0.00%      1.95% # attempts to use FU when none available (Count)
system.cpu0.statFuBusy::FloatMisc                   0      0.00%      1.95% # attempts to use FU when none available (Count)
system.cpu0.statFuBusy::FloatSqrt                   0      0.00%      1.95% # attempts to use FU when none available (Count)
system.cpu0.statFuBusy::SimdAdd                     2      0.00%      1.95% # attempts to use FU when none available (Count)
system.cpu0.statFuBusy::SimdAddAcc                  0      0.00%      1.95% # attempts to use FU when none available (Count)
system.cpu0.statFuBusy::SimdAlu                   117      0.02%      1.96% # attempts to use FU when none available (Count)
system.cpu0.statFuBusy::SimdCmp                     0      0.00%      1.96% # attempts to use FU when none available (Count)
system.cpu0.statFuBusy::SimdCvt                   104      0.01%      1.98% # attempts to use FU when none available (Count)
system.cpu0.statFuBusy::SimdMisc                   60      0.01%      1.99% # attempts to use FU when none available (Count)
system.cpu0.statFuBusy::SimdMult                    0      0.00%      1.99% # attempts to use FU when none available (Count)
system.cpu0.statFuBusy::SimdMultAcc                 0      0.00%      1.99% # attempts to use FU when none available (Count)
system.cpu0.statFuBusy::SimdShift                  17      0.00%      1.99% # attempts to use FU when none available (Count)
system.cpu0.statFuBusy::SimdShiftAcc                0      0.00%      1.99% # attempts to use FU when none available (Count)
system.cpu0.statFuBusy::SimdDiv                     0      0.00%      1.99% # attempts to use FU when none available (Count)
system.cpu0.statFuBusy::SimdSqrt                    0      0.00%      1.99% # attempts to use FU when none available (Count)
system.cpu0.statFuBusy::SimdFloatAdd           651385     93.38%     95.37% # attempts to use FU when none available (Count)
system.cpu0.statFuBusy::SimdFloatAlu                0      0.00%     95.37% # attempts to use FU when none available (Count)
system.cpu0.statFuBusy::SimdFloatCmp                0      0.00%     95.37% # attempts to use FU when none available (Count)
system.cpu0.statFuBusy::SimdFloatCvt                0      0.00%     95.37% # attempts to use FU when none available (Count)
system.cpu0.statFuBusy::SimdFloatDiv                0      0.00%     95.37% # attempts to use FU when none available (Count)
system.cpu0.statFuBusy::SimdFloatMisc               0      0.00%     95.37% # attempts to use FU when none available (Count)
system.cpu0.statFuBusy::SimdFloatMult               0      0.00%     95.37% # attempts to use FU when none available (Count)
system.cpu0.statFuBusy::SimdFloatMultAcc            0      0.00%     95.37% # attempts to use FU when none available (Count)
system.cpu0.statFuBusy::SimdFloatSqrt               0      0.00%     95.37% # attempts to use FU when none available (Count)
system.cpu0.statFuBusy::SimdReduceAdd               0      0.00%     95.37% # attempts to use FU when none available (Count)
system.cpu0.statFuBusy::SimdReduceAlu               0      0.00%     95.37% # attempts to use FU when none available (Count)
system.cpu0.statFuBusy::SimdReduceCmp               0      0.00%     95.37% # attempts to use FU when none available (Count)
system.cpu0.statFuBusy::SimdFloatReduceAdd            0      0.00%     95.37% # attempts to use FU when none available (Count)
system.cpu0.statFuBusy::SimdFloatReduceCmp            0      0.00%     95.37% # attempts to use FU when none available (Count)
system.cpu0.statFuBusy::SimdAes                     0      0.00%     95.37% # attempts to use FU when none available (Count)
system.cpu0.statFuBusy::SimdAesMix                  0      0.00%     95.37% # attempts to use FU when none available (Count)
system.cpu0.statFuBusy::SimdSha1Hash                0      0.00%     95.37% # attempts to use FU when none available (Count)
system.cpu0.statFuBusy::SimdSha1Hash2               0      0.00%     95.37% # attempts to use FU when none available (Count)
system.cpu0.statFuBusy::SimdSha256Hash              0      0.00%     95.37% # attempts to use FU when none available (Count)
system.cpu0.statFuBusy::SimdSha256Hash2             0      0.00%     95.37% # attempts to use FU when none available (Count)
system.cpu0.statFuBusy::SimdShaSigma2               0      0.00%     95.37% # attempts to use FU when none available (Count)
system.cpu0.statFuBusy::SimdShaSigma3               0      0.00%     95.37% # attempts to use FU when none available (Count)
system.cpu0.statFuBusy::SimdPredAlu                 0      0.00%     95.37% # attempts to use FU when none available (Count)
system.cpu0.statFuBusy::MemRead                  2067      0.30%     95.67% # attempts to use FU when none available (Count)
system.cpu0.statFuBusy::MemWrite                 1418      0.20%     95.87% # attempts to use FU when none available (Count)
system.cpu0.statFuBusy::FloatMemRead            19070      2.73%     98.60% # attempts to use FU when none available (Count)
system.cpu0.statFuBusy::FloatMemWrite            9738      1.40%    100.00% # attempts to use FU when none available (Count)
system.cpu0.statFuBusy::IprAccess                   0      0.00%    100.00% # attempts to use FU when none available (Count)
system.cpu0.statFuBusy::InstPrefetch                0      0.00%    100.00% # attempts to use FU when none available (Count)
system.cpu0.statIssuedInstType_0::No_OpClass         7137      0.02%      0.02% # Number of instructions issued per FU type, per thread (Count)
system.cpu0.statIssuedInstType_0::IntAlu     24112387     51.14%     51.15% # Number of instructions issued per FU type, per thread (Count)
system.cpu0.statIssuedInstType_0::IntMult          325      0.00%     51.15% # Number of instructions issued per FU type, per thread (Count)
system.cpu0.statIssuedInstType_0::IntDiv         2945      0.01%     51.16% # Number of instructions issued per FU type, per thread (Count)
system.cpu0.statIssuedInstType_0::FloatAdd      3569123      7.57%     58.73% # Number of instructions issued per FU type, per thread (Count)
system.cpu0.statIssuedInstType_0::FloatCmp            0      0.00%     58.73% # Number of instructions issued per FU type, per thread (Count)
system.cpu0.statIssuedInstType_0::FloatCvt          534      0.00%     58.73% # Number of instructions issued per FU type, per thread (Count)
system.cpu0.statIssuedInstType_0::FloatMult            0      0.00%     58.73% # Number of instructions issued per FU type, per thread (Count)
system.cpu0.statIssuedInstType_0::FloatMultAcc            0      0.00%     58.73% # Number of instructions issued per FU type, per thread (Count)
system.cpu0.statIssuedInstType_0::FloatDiv            0      0.00%     58.73% # Number of instructions issued per FU type, per thread (Count)
system.cpu0.statIssuedInstType_0::FloatMisc            0      0.00%     58.73% # Number of instructions issued per FU type, per thread (Count)
system.cpu0.statIssuedInstType_0::FloatSqrt            0      0.00%     58.73% # Number of instructions issued per FU type, per thread (Count)
system.cpu0.statIssuedInstType_0::SimdAdd         2655      0.01%     58.73% # Number of instructions issued per FU type, per thread (Count)
system.cpu0.statIssuedInstType_0::SimdAddAcc            0      0.00%     58.73% # Number of instructions issued per FU type, per thread (Count)
system.cpu0.statIssuedInstType_0::SimdAlu        27180      0.06%     58.79% # Number of instructions issued per FU type, per thread (Count)
system.cpu0.statIssuedInstType_0::SimdCmp           76      0.00%     58.79% # Number of instructions issued per FU type, per thread (Count)
system.cpu0.statIssuedInstType_0::SimdCvt         6354      0.01%     58.80% # Number of instructions issued per FU type, per thread (Count)
system.cpu0.statIssuedInstType_0::SimdMisc         4371      0.01%     58.81% # Number of instructions issued per FU type, per thread (Count)
system.cpu0.statIssuedInstType_0::SimdMult            0      0.00%     58.81% # Number of instructions issued per FU type, per thread (Count)
system.cpu0.statIssuedInstType_0::SimdMultAcc            0      0.00%     58.81% # Number of instructions issued per FU type, per thread (Count)
system.cpu0.statIssuedInstType_0::SimdShift         1822      0.00%     58.82% # Number of instructions issued per FU type, per thread (Count)
system.cpu0.statIssuedInstType_0::SimdShiftAcc            0      0.00%     58.82% # Number of instructions issued per FU type, per thread (Count)
system.cpu0.statIssuedInstType_0::SimdDiv            0      0.00%     58.82% # Number of instructions issued per FU type, per thread (Count)
system.cpu0.statIssuedInstType_0::SimdSqrt            0      0.00%     58.82% # Number of instructions issued per FU type, per thread (Count)
system.cpu0.statIssuedInstType_0::SimdFloatAdd      6573237     13.94%     72.76% # Number of instructions issued per FU type, per thread (Count)
system.cpu0.statIssuedInstType_0::SimdFloatAlu            0      0.00%     72.76% # Number of instructions issued per FU type, per thread (Count)
system.cpu0.statIssuedInstType_0::SimdFloatCmp           25      0.00%     72.76% # Number of instructions issued per FU type, per thread (Count)
system.cpu0.statIssuedInstType_0::SimdFloatCvt      3016130      6.40%     79.15% # Number of instructions issued per FU type, per thread (Count)
system.cpu0.statIssuedInstType_0::SimdFloatDiv           17      0.00%     79.15% # Number of instructions issued per FU type, per thread (Count)
system.cpu0.statIssuedInstType_0::SimdFloatMisc            0      0.00%     79.15% # Number of instructions issued per FU type, per thread (Count)
system.cpu0.statIssuedInstType_0::SimdFloatMult       505406      1.07%     80.23% # Number of instructions issued per FU type, per thread (Count)
system.cpu0.statIssuedInstType_0::SimdFloatMultAcc            0      0.00%     80.23% # Number of instructions issued per FU type, per thread (Count)
system.cpu0.statIssuedInstType_0::SimdFloatSqrt            0      0.00%     80.23% # Number of instructions issued per FU type, per thread (Count)
system.cpu0.statIssuedInstType_0::SimdReduceAdd            0      0.00%     80.23% # Number of instructions issued per FU type, per thread (Count)
system.cpu0.statIssuedInstType_0::SimdReduceAlu            0      0.00%     80.23% # Number of instructions issued per FU type, per thread (Count)
system.cpu0.statIssuedInstType_0::SimdReduceCmp            0      0.00%     80.23% # Number of instructions issued per FU type, per thread (Count)
system.cpu0.statIssuedInstType_0::SimdFloatReduceAdd            0      0.00%     80.23% # Number of instructions issued per FU type, per thread (Count)
system.cpu0.statIssuedInstType_0::SimdFloatReduceCmp            0      0.00%     80.23% # Number of instructions issued per FU type, per thread (Count)
system.cpu0.statIssuedInstType_0::SimdAes            0      0.00%     80.23% # Number of instructions issued per FU type, per thread (Count)
system.cpu0.statIssuedInstType_0::SimdAesMix            0      0.00%     80.23% # Number of instructions issued per FU type, per thread (Count)
system.cpu0.statIssuedInstType_0::SimdSha1Hash            0      0.00%     80.23% # Number of instructions issued per FU type, per thread (Count)
system.cpu0.statIssuedInstType_0::SimdSha1Hash2            0      0.00%     80.23% # Number of instructions issued per FU type, per thread (Count)
system.cpu0.statIssuedInstType_0::SimdSha256Hash            0      0.00%     80.23% # Number of instructions issued per FU type, per thread (Count)
system.cpu0.statIssuedInstType_0::SimdSha256Hash2            0      0.00%     80.23% # Number of instructions issued per FU type, per thread (Count)
system.cpu0.statIssuedInstType_0::SimdShaSigma2            0      0.00%     80.23% # Number of instructions issued per FU type, per thread (Count)
system.cpu0.statIssuedInstType_0::SimdShaSigma3            0      0.00%     80.23% # Number of instructions issued per FU type, per thread (Count)
system.cpu0.statIssuedInstType_0::SimdPredAlu            0      0.00%     80.23% # Number of instructions issued per FU type, per thread (Count)
system.cpu0.statIssuedInstType_0::MemRead       249865      0.53%     80.76% # Number of instructions issued per FU type, per thread (Count)
system.cpu0.statIssuedInstType_0::MemWrite       130750      0.28%     81.03% # Number of instructions issued per FU type, per thread (Count)
system.cpu0.statIssuedInstType_0::FloatMemRead      7748831     16.43%     97.47% # Number of instructions issued per FU type, per thread (Count)
system.cpu0.statIssuedInstType_0::FloatMemWrite      1194700      2.53%    100.00% # Number of instructions issued per FU type, per thread (Count)
system.cpu0.statIssuedInstType_0::IprAccess            0      0.00%    100.00% # Number of instructions issued per FU type, per thread (Count)
system.cpu0.statIssuedInstType_0::InstPrefetch            0      0.00%    100.00% # Number of instructions issued per FU type, per thread (Count)
system.cpu0.statIssuedInstType_0::total      47153870                       # Number of instructions issued per FU type, per thread (Count)
system.cpu0.issueRate                        0.296973                       # Inst issue rate ((Count/Cycle))
system.cpu0.fuBusy                             697556                       # FU busy when requested (Count)
system.cpu0.fuBusyRate                       0.014793                       # FU busy rate (busy events/executed inst) ((Count/Count))
system.cpu0.intInstQueueReads               205338830                       # Number of integer instruction queue reads (Count)
system.cpu0.intInstQueueWrites               24127555                       # Number of integer instruction queue writes (Count)
system.cpu0.intInstQueueWakeupAccesses       23436781                       # Number of integer instruction queue wakeup accesses (Count)
system.cpu0.fpInstQueueReads                 48005415                       # Number of floating instruction queue reads (Count)
system.cpu0.fpInstQueueWrites                23587145                       # Number of floating instruction queue writes (Count)
system.cpu0.fpInstQueueWakeupAccesses        23512517                       # Number of floating instruction queue wakeup accesses (Count)
system.cpu0.vecInstQueueReads                       0                       # Number of vector instruction queue reads (Count)
system.cpu0.vecInstQueueWrites                      0                       # Number of vector instruction queue writes (Count)
system.cpu0.vecInstQueueWakeupAccesses              0                       # Number of vector instruction queue wakeup accesses (Count)
system.cpu0.intAluAccesses                   23501441                       # Number of integer alu accesses (Count)
system.cpu0.fpAluAccesses                    24342848                       # Number of floating point alu accesses (Count)
system.cpu0.vecAluAccesses                          0                       # Number of vector alu accesses (Count)
system.cpu0.numInsts                         47121614                       # Number of executed instructions (Count)
system.cpu0.numLoadInsts                      7992811                       # Number of load instructions executed (Count)
system.cpu0.numSquashedInsts                    32256                       # Number of squashed instructions skipped in execute (Count)
system.cpu0.numSwp                                  0                       # Number of swp insts executed (Count)
system.cpu0.numNop                                  0                       # Number of nop insts executed (Count)
system.cpu0.numRefs                           9317237                       # Number of memory reference insts executed (Count)
system.cpu0.numBranches                       4829722                       # Number of branches executed (Count)
system.cpu0.numStoreInsts                     1324426                       # Number of stores executed (Count)
system.cpu0.numRate                          0.296770                       # Inst execution rate ((Count/Cycle))
system.cpu0.timesIdled                           1956                       # Number of times that the entire CPU went into an idle state and unscheduled itself (Count)
system.cpu0.idleCycles                         444893                       # Total number of cycles that the CPU has spent unscheduled due to idling (Cycle)
system.cpu0.committedInsts                   25497034                       # Number of Instructions Simulated (Count)
system.cpu0.committedOps                     46547131                       # Number of Ops (including micro ops) Simulated (Count)
system.cpu0.cpi                              6.227461                       # CPI: Cycles Per Instruction ((Cycle/Count))
system.cpu0.totalCpi                         6.227461                       # CPI: Total CPI of All Threads ((Cycle/Count))
system.cpu0.ipc                              0.160579                       # IPC: Instructions Per Cycle ((Count/Cycle))
system.cpu0.totalIpc                         0.160579                       # IPC: Total IPC of All Threads ((Count/Cycle))
system.cpu0.intRegfileReads                  35356547                       # Number of integer regfile reads (Count)
system.cpu0.intRegfileWrites                 16628049                       # Number of integer regfile writes (Count)
system.cpu0.fpRegfileReads                   30577472                       # Number of floating regfile reads (Count)
system.cpu0.fpRegfileWrites                  19309176                       # Number of floating regfile writes (Count)
system.cpu0.ccRegfileReads                   30095796                       # number of cc regfile reads (Count)
system.cpu0.ccRegfileWrites                  12986864                       # number of cc regfile writes (Count)
system.cpu0.miscRegfileReads                 19498421                       # number of misc regfile reads (Count)
system.cpu0.miscRegfileWrites                     234                       # number of misc regfile writes (Count)
system.cpu0.MemDepUnit__0.insertedLoads       7858684                       # Number of loads inserted to the mem dependence unit. (Count)
system.cpu0.MemDepUnit__0.insertedStores      1330330                       # Number of stores inserted to the mem dependence unit. (Count)
system.cpu0.MemDepUnit__0.conflictingLoads        67716                       # Number of conflicting loads. (Count)
system.cpu0.MemDepUnit__0.conflictingStores        66378                       # Number of conflicting stores. (Count)
system.cpu0.MemDepUnit__1.insertedLoads             0                       # Number of loads inserted to the mem dependence unit. (Count)
system.cpu0.MemDepUnit__1.insertedStores            0                       # Number of stores inserted to the mem dependence unit. (Count)
system.cpu0.MemDepUnit__1.conflictingLoads            0                       # Number of conflicting loads. (Count)
system.cpu0.MemDepUnit__1.conflictingStores            0                       # Number of conflicting stores. (Count)
system.cpu0.MemDepUnit__2.insertedLoads             0                       # Number of loads inserted to the mem dependence unit. (Count)
system.cpu0.MemDepUnit__2.insertedStores            0                       # Number of stores inserted to the mem dependence unit. (Count)
system.cpu0.MemDepUnit__2.conflictingLoads            0                       # Number of conflicting loads. (Count)
system.cpu0.MemDepUnit__2.conflictingStores            0                       # Number of conflicting stores. (Count)
system.cpu0.MemDepUnit__3.insertedLoads             0                       # Number of loads inserted to the mem dependence unit. (Count)
system.cpu0.MemDepUnit__3.insertedStores            0                       # Number of stores inserted to the mem dependence unit. (Count)
system.cpu0.MemDepUnit__3.conflictingLoads            0                       # Number of conflicting loads. (Count)
system.cpu0.MemDepUnit__3.conflictingStores            0                       # Number of conflicting stores. (Count)
system.cpu0.branchPred.lookups                4885584                       # Number of BP lookups (Count)
system.cpu0.branchPred.condPredicted          4829656                       # Number of conditional branches predicted (Count)
system.cpu0.branchPred.condIncorrect             9186                       # Number of conditional branches incorrect (Count)
system.cpu0.branchPred.BTBLookups             1686662                       # Number of BTB lookups (Count)
system.cpu0.branchPred.BTBHits                1682968                       # Number of BTB hits (Count)
system.cpu0.branchPred.BTBHitRatio           0.997810                       # BTB Hit Ratio (Ratio)
system.cpu0.branchPred.RASUsed                  19658                       # Number of times the RAS was used to get a target. (Count)
system.cpu0.branchPred.RASIncorrect                 6                       # Number of incorrect RAS predictions. (Count)
system.cpu0.branchPred.indirectLookups          10996                       # Number of indirect predictor lookups. (Count)
system.cpu0.branchPred.indirectHits              6703                       # Number of indirect target hits. (Count)
system.cpu0.branchPred.indirectMisses            4293                       # Number of indirect misses. (Count)
system.cpu0.branchPred.indirectMispredicted          899                       # Number of mispredicted indirect branches. (Count)
system.cpu0.commit.commitSquashedInsts         470867                       # The number of squashed insts skipped by commit (Count)
system.cpu0.commit.commitNonSpecStalls           1116                       # The number of times commit has been forced to stall to communicate backwards (Count)
system.cpu0.commit.branchMispredicts             9986                       # The number of times a branch was mispredicted (Count)
system.cpu0.commit.numCommittedDist::samples    158267804                       # Number of insts commited each cycle (Count)
system.cpu0.commit.numCommittedDist::mean     0.294104                       # Number of insts commited each cycle (Count)
system.cpu0.commit.numCommittedDist::stdev     1.378783                       # Number of insts commited each cycle (Count)
system.cpu0.commit.numCommittedDist::underflows            0      0.00%      0.00% # Number of insts commited each cycle (Count)
system.cpu0.commit.numCommittedDist::0      148902015     94.08%     94.08% # Number of insts commited each cycle (Count)
system.cpu0.commit.numCommittedDist::1        1905451      1.20%     95.29% # Number of insts commited each cycle (Count)
system.cpu0.commit.numCommittedDist::2         905176      0.57%     95.86% # Number of insts commited each cycle (Count)
system.cpu0.commit.numCommittedDist::3        1286008      0.81%     96.67% # Number of insts commited each cycle (Count)
system.cpu0.commit.numCommittedDist::4         487628      0.31%     96.98% # Number of insts commited each cycle (Count)
system.cpu0.commit.numCommittedDist::5         294644      0.19%     97.17% # Number of insts commited each cycle (Count)
system.cpu0.commit.numCommittedDist::6         158405      0.10%     97.27% # Number of insts commited each cycle (Count)
system.cpu0.commit.numCommittedDist::7          28674      0.02%     97.28% # Number of insts commited each cycle (Count)
system.cpu0.commit.numCommittedDist::8        4299803      2.72%    100.00% # Number of insts commited each cycle (Count)
system.cpu0.commit.numCommittedDist::overflows            0      0.00%    100.00% # Number of insts commited each cycle (Count)
system.cpu0.commit.numCommittedDist::min_value            0                       # Number of insts commited each cycle (Count)
system.cpu0.commit.numCommittedDist::max_value            8                       # Number of insts commited each cycle (Count)
system.cpu0.commit.numCommittedDist::total    158267804                       # Number of insts commited each cycle (Count)
system.cpu0.commit.instsCommitted            25497034                       # Number of instructions committed (Count)
system.cpu0.commit.opsCommitted              46547131                       # Number of ops (including micro ops) committed (Count)
system.cpu0.commit.memRefs                    9081819                       # Number of memory references committed (Count)
system.cpu0.commit.loads                      7774592                       # Number of loads committed (Count)
system.cpu0.commit.amos                             0                       # Number of atomic instructions committed (Count)
system.cpu0.commit.membars                        588                       # Number of memory barriers committed (Count)
system.cpu0.commit.branches                   4792323                       # Number of branches committed (Count)
system.cpu0.commit.vectorInstructions               0                       # Number of committed Vector instructions. (Count)
system.cpu0.commit.floating                  23455261                       # Number of committed floating point instructions. (Count)
system.cpu0.commit.integer                   31784652                       # Number of committed integer instructions. (Count)
system.cpu0.commit.functionCalls                 9293                       # Number of function calls committed. (Count)
system.cpu0.commit.committedInstType_0::No_OpClass         2195      0.00%      0.00% # Class of committed instruction (Count)
system.cpu0.commit.committedInstType_0::IntAlu     23789173     51.11%     51.11% # Class of committed instruction (Count)
system.cpu0.commit.committedInstType_0::IntMult          293      0.00%     51.11% # Class of committed instruction (Count)
system.cpu0.commit.committedInstType_0::IntDiv         2655      0.01%     51.12% # Class of committed instruction (Count)
system.cpu0.commit.committedInstType_0::FloatAdd      3565867      7.66%     58.78% # Class of committed instruction (Count)
system.cpu0.commit.committedInstType_0::FloatCmp            0      0.00%     58.78% # Class of committed instruction (Count)
system.cpu0.commit.committedInstType_0::FloatCvt          416      0.00%     58.78% # Class of committed instruction (Count)
system.cpu0.commit.committedInstType_0::FloatMult            0      0.00%     58.78% # Class of committed instruction (Count)
system.cpu0.commit.committedInstType_0::FloatMultAcc            0      0.00%     58.78% # Class of committed instruction (Count)
system.cpu0.commit.committedInstType_0::FloatDiv            0      0.00%     58.78% # Class of committed instruction (Count)
system.cpu0.commit.committedInstType_0::FloatMisc            0      0.00%     58.78% # Class of committed instruction (Count)
system.cpu0.commit.committedInstType_0::FloatSqrt            0      0.00%     58.78% # Class of committed instruction (Count)
system.cpu0.commit.committedInstType_0::SimdAdd         2080      0.00%     58.78% # Class of committed instruction (Count)
system.cpu0.commit.committedInstType_0::SimdAddAcc            0      0.00%     58.78% # Class of committed instruction (Count)
system.cpu0.commit.committedInstType_0::SimdAlu        14469      0.03%     58.82% # Class of committed instruction (Count)
system.cpu0.commit.committedInstType_0::SimdCmp           72      0.00%     58.82% # Class of committed instruction (Count)
system.cpu0.commit.committedInstType_0::SimdCvt         4652      0.01%     58.83% # Class of committed instruction (Count)
system.cpu0.commit.committedInstType_0::SimdMisc         3761      0.01%     58.83% # Class of committed instruction (Count)
system.cpu0.commit.committedInstType_0::SimdMult            0      0.00%     58.83% # Class of committed instruction (Count)
system.cpu0.commit.committedInstType_0::SimdMultAcc            0      0.00%     58.83% # Class of committed instruction (Count)
system.cpu0.commit.committedInstType_0::SimdShift          932      0.00%     58.84% # Class of committed instruction (Count)
system.cpu0.commit.committedInstType_0::SimdShiftAcc            0      0.00%     58.84% # Class of committed instruction (Count)
system.cpu0.commit.committedInstType_0::SimdDiv            0      0.00%     58.84% # Class of committed instruction (Count)
system.cpu0.commit.committedInstType_0::SimdSqrt            0      0.00%     58.84% # Class of committed instruction (Count)
system.cpu0.commit.committedInstType_0::SimdFloatAdd      6567888     14.11%     72.95% # Class of committed instruction (Count)
system.cpu0.commit.committedInstType_0::SimdFloatAlu            0      0.00%     72.95% # Class of committed instruction (Count)
system.cpu0.commit.committedInstType_0::SimdFloatCmp           24      0.00%     72.95% # Class of committed instruction (Count)
system.cpu0.commit.committedInstType_0::SimdFloatCvt      3008095      6.46%     79.41% # Class of committed instruction (Count)
system.cpu0.commit.committedInstType_0::SimdFloatDiv           15      0.00%     79.41% # Class of committed instruction (Count)
system.cpu0.commit.committedInstType_0::SimdFloatMisc            0      0.00%     79.41% # Class of committed instruction (Count)
system.cpu0.commit.committedInstType_0::SimdFloatMult       502725      1.08%     80.49% # Class of committed instruction (Count)
system.cpu0.commit.committedInstType_0::SimdFloatMultAcc            0      0.00%     80.49% # Class of committed instruction (Count)
system.cpu0.commit.committedInstType_0::SimdFloatSqrt            0      0.00%     80.49% # Class of committed instruction (Count)
system.cpu0.commit.committedInstType_0::SimdReduceAdd            0      0.00%     80.49% # Class of committed instruction (Count)
system.cpu0.commit.committedInstType_0::SimdReduceAlu            0      0.00%     80.49% # Class of committed instruction (Count)
system.cpu0.commit.committedInstType_0::SimdReduceCmp            0      0.00%     80.49% # Class of committed instruction (Count)
system.cpu0.commit.committedInstType_0::SimdFloatReduceAdd            0      0.00%     80.49% # Class of committed instruction (Count)
system.cpu0.commit.committedInstType_0::SimdFloatReduceCmp            0      0.00%     80.49% # Class of committed instruction (Count)
system.cpu0.commit.committedInstType_0::SimdAes            0      0.00%     80.49% # Class of committed instruction (Count)
system.cpu0.commit.committedInstType_0::SimdAesMix            0      0.00%     80.49% # Class of committed instruction (Count)
system.cpu0.commit.committedInstType_0::SimdSha1Hash            0      0.00%     80.49% # Class of committed instruction (Count)
system.cpu0.commit.committedInstType_0::SimdSha1Hash2            0      0.00%     80.49% # Class of committed instruction (Count)
system.cpu0.commit.committedInstType_0::SimdSha256Hash            0      0.00%     80.49% # Class of committed instruction (Count)
system.cpu0.commit.committedInstType_0::SimdSha256Hash2            0      0.00%     80.49% # Class of committed instruction (Count)
system.cpu0.commit.committedInstType_0::SimdShaSigma2            0      0.00%     80.49% # Class of committed instruction (Count)
system.cpu0.commit.committedInstType_0::SimdShaSigma3            0      0.00%     80.49% # Class of committed instruction (Count)
system.cpu0.commit.committedInstType_0::SimdPredAlu            0      0.00%     80.49% # Class of committed instruction (Count)
system.cpu0.commit.committedInstType_0::MemRead       190704      0.41%     80.90% # Class of committed instruction (Count)
system.cpu0.commit.committedInstType_0::MemWrite       113275      0.24%     81.14% # Class of committed instruction (Count)
system.cpu0.commit.committedInstType_0::FloatMemRead      7583888     16.29%     97.43% # Class of committed instruction (Count)
system.cpu0.commit.committedInstType_0::FloatMemWrite      1193952      2.57%    100.00% # Class of committed instruction (Count)
system.cpu0.commit.committedInstType_0::IprAccess            0      0.00%    100.00% # Class of committed instruction (Count)
system.cpu0.commit.committedInstType_0::InstPrefetch            0      0.00%    100.00% # Class of committed instruction (Count)
system.cpu0.commit.committedInstType_0::total     46547131                       # Class of committed instruction (Count)
system.cpu0.commit.commitEligibleSamples      4299803                       # number cycles where commit BW limit reached (Cycle)
system.cpu0.dcache.demandHits::cpu00.data      5946918                       # number of demand (read+write) hits (Count)
system.cpu0.dcache.demandHits::total          5946918                       # number of demand (read+write) hits (Count)
system.cpu0.dcache.overallHits::cpu00.data      5946918                       # number of overall hits (Count)
system.cpu0.dcache.overallHits::total         5946918                       # number of overall hits (Count)
system.cpu0.dcache.demandMisses::cpu00.data      3188979                       # number of demand (read+write) misses (Count)
system.cpu0.dcache.demandMisses::total        3188979                       # number of demand (read+write) misses (Count)
system.cpu0.dcache.overallMisses::cpu00.data      3188979                       # number of overall misses (Count)
system.cpu0.dcache.overallMisses::total       3188979                       # number of overall misses (Count)
system.cpu0.dcache.demandMissLatency::cpu00.data 280222909431                       # number of demand (read+write) miss ticks (Tick)
system.cpu0.dcache.demandMissLatency::total 280222909431                       # number of demand (read+write) miss ticks (Tick)
system.cpu0.dcache.overallMissLatency::cpu00.data 280222909431                       # number of overall miss ticks (Tick)
system.cpu0.dcache.overallMissLatency::total 280222909431                       # number of overall miss ticks (Tick)
system.cpu0.dcache.demandAccesses::cpu00.data      9135897                       # number of demand (read+write) accesses (Count)
system.cpu0.dcache.demandAccesses::total      9135897                       # number of demand (read+write) accesses (Count)
system.cpu0.dcache.overallAccesses::cpu00.data      9135897                       # number of overall (read+write) accesses (Count)
system.cpu0.dcache.overallAccesses::total      9135897                       # number of overall (read+write) accesses (Count)
system.cpu0.dcache.demandMissRate::cpu00.data     0.349060                       # miss rate for demand accesses (Ratio)
system.cpu0.dcache.demandMissRate::total     0.349060                       # miss rate for demand accesses (Ratio)
system.cpu0.dcache.overallMissRate::cpu00.data     0.349060                       # miss rate for overall accesses (Ratio)
system.cpu0.dcache.overallMissRate::total     0.349060                       # miss rate for overall accesses (Ratio)
system.cpu0.dcache.demandAvgMissLatency::cpu00.data 87872.296880                       # average overall miss latency in ticks ((Tick/Count))
system.cpu0.dcache.demandAvgMissLatency::total 87872.296880                       # average overall miss latency in ticks ((Tick/Count))
system.cpu0.dcache.overallAvgMissLatency::cpu00.data 87872.296880                       # average overall miss latency ((Tick/Count))
system.cpu0.dcache.overallAvgMissLatency::total 87872.296880                       # average overall miss latency ((Tick/Count))
system.cpu0.dcache.blockedCycles::no_mshrs     23559478                       # number of cycles access was blocked (Cycle)
system.cpu0.dcache.blockedCycles::no_targets         5059                       # number of cycles access was blocked (Cycle)
system.cpu0.dcache.blockedCauses::no_mshrs       105022                       # number of times access was blocked (Count)
system.cpu0.dcache.blockedCauses::no_targets           26                       # number of times access was blocked (Count)
system.cpu0.dcache.avgBlocked::no_mshrs    224.328979                       # average number of cycles each access was blocked ((Cycle/Count))
system.cpu0.dcache.avgBlocked::no_targets   194.576923                       # average number of cycles each access was blocked ((Cycle/Count))
system.cpu0.dcache.writebacks::writebacks       159419                       # number of writebacks (Count)
system.cpu0.dcache.writebacks::total           159419                       # number of writebacks (Count)
system.cpu0.dcache.demandMshrHits::cpu00.data      2462689                       # number of demand (read+write) MSHR hits (Count)
system.cpu0.dcache.demandMshrHits::total      2462689                       # number of demand (read+write) MSHR hits (Count)
system.cpu0.dcache.overallMshrHits::cpu00.data      2462689                       # number of overall MSHR hits (Count)
system.cpu0.dcache.overallMshrHits::total      2462689                       # number of overall MSHR hits (Count)
system.cpu0.dcache.demandMshrMisses::cpu00.data       726290                       # number of demand (read+write) MSHR misses (Count)
system.cpu0.dcache.demandMshrMisses::total       726290                       # number of demand (read+write) MSHR misses (Count)
system.cpu0.dcache.overallMshrMisses::cpu00.data       726290                       # number of overall MSHR misses (Count)
system.cpu0.dcache.overallMshrMisses::total       726290                       # number of overall MSHR misses (Count)
system.cpu0.dcache.demandMshrMissLatency::cpu00.data  94433226180                       # number of demand (read+write) MSHR miss ticks (Tick)
system.cpu0.dcache.demandMshrMissLatency::total  94433226180                       # number of demand (read+write) MSHR miss ticks (Tick)
system.cpu0.dcache.overallMshrMissLatency::cpu00.data  94433226180                       # number of overall MSHR miss ticks (Tick)
system.cpu0.dcache.overallMshrMissLatency::total  94433226180                       # number of overall MSHR miss ticks (Tick)
system.cpu0.dcache.demandMshrMissRate::cpu00.data     0.079498                       # mshr miss ratio for demand accesses (Ratio)
system.cpu0.dcache.demandMshrMissRate::total     0.079498                       # mshr miss ratio for demand accesses (Ratio)
system.cpu0.dcache.overallMshrMissRate::cpu00.data     0.079498                       # mshr miss ratio for overall accesses (Ratio)
system.cpu0.dcache.overallMshrMissRate::total     0.079498                       # mshr miss ratio for overall accesses (Ratio)
system.cpu0.dcache.demandAvgMshrMissLatency::cpu00.data 130021.377384                       # average overall mshr miss latency ((Tick/Count))
system.cpu0.dcache.demandAvgMshrMissLatency::total 130021.377384                       # average overall mshr miss latency ((Tick/Count))
system.cpu0.dcache.overallAvgMshrMissLatency::cpu00.data 130021.377384                       # average overall mshr miss latency ((Tick/Count))
system.cpu0.dcache.overallAvgMshrMissLatency::total 130021.377384                       # average overall mshr miss latency ((Tick/Count))
system.cpu0.dcache.replacements                724886                       # number of replacements (Count)
system.cpu0.dcache.LockedRMWReadReq.hits::cpu00.data          251                       # number of LockedRMWReadReq hits (Count)
system.cpu0.dcache.LockedRMWReadReq.hits::total          251                       # number of LockedRMWReadReq hits (Count)
system.cpu0.dcache.LockedRMWReadReq.misses::cpu00.data           43                       # number of LockedRMWReadReq misses (Count)
system.cpu0.dcache.LockedRMWReadReq.misses::total           43                       # number of LockedRMWReadReq misses (Count)
system.cpu0.dcache.LockedRMWReadReq.missLatency::cpu00.data      1147750                       # number of LockedRMWReadReq miss ticks (Tick)
system.cpu0.dcache.LockedRMWReadReq.missLatency::total      1147750                       # number of LockedRMWReadReq miss ticks (Tick)
system.cpu0.dcache.LockedRMWReadReq.accesses::cpu00.data          294                       # number of LockedRMWReadReq accesses(hits+misses) (Count)
system.cpu0.dcache.LockedRMWReadReq.accesses::total          294                       # number of LockedRMWReadReq accesses(hits+misses) (Count)
system.cpu0.dcache.LockedRMWReadReq.missRate::cpu00.data     0.146259                       # miss rate for LockedRMWReadReq accesses (Ratio)
system.cpu0.dcache.LockedRMWReadReq.missRate::total     0.146259                       # miss rate for LockedRMWReadReq accesses (Ratio)
system.cpu0.dcache.LockedRMWReadReq.avgMissLatency::cpu00.data 26691.860465                       # average LockedRMWReadReq miss latency ((Tick/Count))
system.cpu0.dcache.LockedRMWReadReq.avgMissLatency::total 26691.860465                       # average LockedRMWReadReq miss latency ((Tick/Count))
system.cpu0.dcache.LockedRMWReadReq.mshrMisses::cpu00.data           43                       # number of LockedRMWReadReq MSHR misses (Count)
system.cpu0.dcache.LockedRMWReadReq.mshrMisses::total           43                       # number of LockedRMWReadReq MSHR misses (Count)
system.cpu0.dcache.LockedRMWReadReq.mshrMissLatency::cpu00.data      2905750                       # number of LockedRMWReadReq MSHR miss ticks (Tick)
system.cpu0.dcache.LockedRMWReadReq.mshrMissLatency::total      2905750                       # number of LockedRMWReadReq MSHR miss ticks (Tick)
system.cpu0.dcache.LockedRMWReadReq.mshrMissRate::cpu00.data     0.146259                       # mshr miss rate for LockedRMWReadReq accesses (Ratio)
system.cpu0.dcache.LockedRMWReadReq.mshrMissRate::total     0.146259                       # mshr miss rate for LockedRMWReadReq accesses (Ratio)
system.cpu0.dcache.LockedRMWReadReq.avgMshrMissLatency::cpu00.data 67575.581395                       # average LockedRMWReadReq mshr miss latency ((Tick/Count))
system.cpu0.dcache.LockedRMWReadReq.avgMshrMissLatency::total 67575.581395                       # average LockedRMWReadReq mshr miss latency ((Tick/Count))
system.cpu0.dcache.LockedRMWWriteReq.hits::cpu00.data          294                       # number of LockedRMWWriteReq hits (Count)
system.cpu0.dcache.LockedRMWWriteReq.hits::total          294                       # number of LockedRMWWriteReq hits (Count)
system.cpu0.dcache.LockedRMWWriteReq.accesses::cpu00.data          294                       # number of LockedRMWWriteReq accesses(hits+misses) (Count)
system.cpu0.dcache.LockedRMWWriteReq.accesses::total          294                       # number of LockedRMWWriteReq accesses(hits+misses) (Count)
system.cpu0.dcache.ReadReq.hits::cpu00.data      4791479                       # number of ReadReq hits (Count)
system.cpu0.dcache.ReadReq.hits::total        4791479                       # number of ReadReq hits (Count)
system.cpu0.dcache.ReadReq.misses::cpu00.data      3037464                       # number of ReadReq misses (Count)
system.cpu0.dcache.ReadReq.misses::total      3037464                       # number of ReadReq misses (Count)
system.cpu0.dcache.ReadReq.missLatency::cpu00.data 254174562500                       # number of ReadReq miss ticks (Tick)
system.cpu0.dcache.ReadReq.missLatency::total 254174562500                       # number of ReadReq miss ticks (Tick)
system.cpu0.dcache.ReadReq.accesses::cpu00.data      7828943                       # number of ReadReq accesses(hits+misses) (Count)
system.cpu0.dcache.ReadReq.accesses::total      7828943                       # number of ReadReq accesses(hits+misses) (Count)
system.cpu0.dcache.ReadReq.missRate::cpu00.data     0.387979                       # miss rate for ReadReq accesses (Ratio)
system.cpu0.dcache.ReadReq.missRate::total     0.387979                       # miss rate for ReadReq accesses (Ratio)
system.cpu0.dcache.ReadReq.avgMissLatency::cpu00.data 83679.860074                       # average ReadReq miss latency ((Tick/Count))
system.cpu0.dcache.ReadReq.avgMissLatency::total 83679.860074                       # average ReadReq miss latency ((Tick/Count))
system.cpu0.dcache.ReadReq.mshrHits::cpu00.data      2462677                       # number of ReadReq MSHR hits (Count)
system.cpu0.dcache.ReadReq.mshrHits::total      2462677                       # number of ReadReq MSHR hits (Count)
system.cpu0.dcache.ReadReq.mshrMisses::cpu00.data       574787                       # number of ReadReq MSHR misses (Count)
system.cpu0.dcache.ReadReq.mshrMisses::total       574787                       # number of ReadReq MSHR misses (Count)
system.cpu0.dcache.ReadReq.mshrMissLatency::cpu00.data  68461214500                       # number of ReadReq MSHR miss ticks (Tick)
system.cpu0.dcache.ReadReq.mshrMissLatency::total  68461214500                       # number of ReadReq MSHR miss ticks (Tick)
system.cpu0.dcache.ReadReq.mshrMissRate::cpu00.data     0.073418                       # mshr miss rate for ReadReq accesses (Ratio)
system.cpu0.dcache.ReadReq.mshrMissRate::total     0.073418                       # mshr miss rate for ReadReq accesses (Ratio)
system.cpu0.dcache.ReadReq.avgMshrMissLatency::cpu00.data 119107.103153                       # average ReadReq mshr miss latency ((Tick/Count))
system.cpu0.dcache.ReadReq.avgMshrMissLatency::total 119107.103153                       # average ReadReq mshr miss latency ((Tick/Count))
system.cpu0.dcache.WriteReq.hits::cpu00.data      1155439                       # number of WriteReq hits (Count)
system.cpu0.dcache.WriteReq.hits::total       1155439                       # number of WriteReq hits (Count)
system.cpu0.dcache.WriteReq.misses::cpu00.data       151515                       # number of WriteReq misses (Count)
system.cpu0.dcache.WriteReq.misses::total       151515                       # number of WriteReq misses (Count)
system.cpu0.dcache.WriteReq.missLatency::cpu00.data  26048346931                       # number of WriteReq miss ticks (Tick)
system.cpu0.dcache.WriteReq.missLatency::total  26048346931                       # number of WriteReq miss ticks (Tick)
system.cpu0.dcache.WriteReq.accesses::cpu00.data      1306954                       # number of WriteReq accesses(hits+misses) (Count)
system.cpu0.dcache.WriteReq.accesses::total      1306954                       # number of WriteReq accesses(hits+misses) (Count)
system.cpu0.dcache.WriteReq.missRate::cpu00.data     0.115930                       # miss rate for WriteReq accesses (Ratio)
system.cpu0.dcache.WriteReq.missRate::total     0.115930                       # miss rate for WriteReq accesses (Ratio)
system.cpu0.dcache.WriteReq.avgMissLatency::cpu00.data 171919.261664                       # average WriteReq miss latency ((Tick/Count))
system.cpu0.dcache.WriteReq.avgMissLatency::total 171919.261664                       # average WriteReq miss latency ((Tick/Count))
system.cpu0.dcache.WriteReq.mshrHits::cpu00.data           12                       # number of WriteReq MSHR hits (Count)
system.cpu0.dcache.WriteReq.mshrHits::total           12                       # number of WriteReq MSHR hits (Count)
system.cpu0.dcache.WriteReq.mshrMisses::cpu00.data       151503                       # number of WriteReq MSHR misses (Count)
system.cpu0.dcache.WriteReq.mshrMisses::total       151503                       # number of WriteReq MSHR misses (Count)
system.cpu0.dcache.WriteReq.mshrMissLatency::cpu00.data  25972011680                       # number of WriteReq MSHR miss ticks (Tick)
system.cpu0.dcache.WriteReq.mshrMissLatency::total  25972011680                       # number of WriteReq MSHR miss ticks (Tick)
system.cpu0.dcache.WriteReq.mshrMissRate::cpu00.data     0.115921                       # mshr miss rate for WriteReq accesses (Ratio)
system.cpu0.dcache.WriteReq.mshrMissRate::total     0.115921                       # mshr miss rate for WriteReq accesses (Ratio)
system.cpu0.dcache.WriteReq.avgMshrMissLatency::cpu00.data 171429.025696                       # average WriteReq mshr miss latency ((Tick/Count))
system.cpu0.dcache.WriteReq.avgMshrMissLatency::total 171429.025696                       # average WriteReq mshr miss latency ((Tick/Count))
system.cpu0.dcache.power_state.pwrStateResidencyTicks::UNDEFINED  39695445500                       # Cumulative time (in ticks) in various power states (Tick)
system.cpu0.dcache.tags.tagsInUse         1022.352166                       # Average ticks per tags in use ((Tick/Count))
system.cpu0.dcache.tags.totalRefs             6673798                       # Total number of references to valid blocks. (Count)
system.cpu0.dcache.tags.sampledRefs            726224                       # Sample count of references to valid blocks. (Count)
system.cpu0.dcache.tags.avgRefs              9.189724                       # Average number of references to valid blocks. ((Count/Count))
system.cpu0.dcache.tags.warmupTick             153000                       # The tick when the warmup percentage was hit. (Tick)
system.cpu0.dcache.tags.occupancies::cpu00.data  1022.352166                       # Average occupied blocks per tick, per requestor ((Count/Tick))
system.cpu0.dcache.tags.avgOccs::cpu00.data     0.998391                       # Average percentage of cache occupancy ((Ratio/Tick))
system.cpu0.dcache.tags.avgOccs::total       0.998391                       # Average percentage of cache occupancy ((Ratio/Tick))
system.cpu0.dcache.tags.occupanciesTaskId::1024         1024                       # Occupied blocks per task id (Count)
system.cpu0.dcache.tags.ageTaskId_1024::0          141                       # Occupied blocks per task id, per block age (Count)
system.cpu0.dcache.tags.ageTaskId_1024::1          882                       # Occupied blocks per task id, per block age (Count)
system.cpu0.dcache.tags.ageTaskId_1024::4            1                       # Occupied blocks per task id, per block age (Count)
system.cpu0.dcache.tags.ratioOccsTaskId::1024            1                       # Ratio of occupied blocks and all blocks, per task id (Ratio)
system.cpu0.dcache.tags.tagAccesses          18999194                       # Number of tag accesses (Count)
system.cpu0.dcache.tags.dataAccesses         18999194                       # Number of data accesses (Count)
system.cpu0.dcache.tags.power_state.pwrStateResidencyTicks::UNDEFINED  39695445500                       # Cumulative time (in ticks) in various power states (Tick)
system.cpu0.decode.idleCycles                 2999688                       # Number of cycles decode is idle (Cycle)
system.cpu0.decode.blockedCycles            148873281                       # Number of cycles decode is blocked (Cycle)
system.cpu0.decode.runCycles                  4322721                       # Number of cycles decode is running (Cycle)
system.cpu0.decode.unblockCycles              2127887                       # Number of cycles decode is unblocking (Cycle)
system.cpu0.decode.squashCycles                 13313                       # Number of cycles decode is squashing (Cycle)
system.cpu0.decode.branchResolved             1679282                       # Number of times decode resolved a branch (Count)
system.cpu0.decode.branchMispred                 1365                       # Number of times decode detected a branch misprediction (Count)
system.cpu0.decode.decodedInsts              47226556                       # Number of instructions handled by decode (Count)
system.cpu0.decode.squashedInsts                 6601                       # Number of squashed instructions handled by decode (Count)
system.cpu0.dtb_walker_cache.blockedCycles::no_mshrs            0                       # number of cycles access was blocked (Cycle)
system.cpu0.dtb_walker_cache.blockedCycles::no_targets            0                       # number of cycles access was blocked (Cycle)
system.cpu0.dtb_walker_cache.blockedCauses::no_mshrs            0                       # number of times access was blocked (Count)
system.cpu0.dtb_walker_cache.blockedCauses::no_targets            0                       # number of times access was blocked (Count)
system.cpu0.dtb_walker_cache.avgBlocked::no_mshrs          nan                       # average number of cycles each access was blocked ((Cycle/Count))
system.cpu0.dtb_walker_cache.avgBlocked::no_targets          nan                       # average number of cycles each access was blocked ((Cycle/Count))
system.cpu0.dtb_walker_cache.replacements            0                       # number of replacements (Count)
system.cpu0.dtb_walker_cache.power_state.pwrStateResidencyTicks::UNDEFINED  39695445500                       # Cumulative time (in ticks) in various power states (Tick)
system.cpu0.dtb_walker_cache.tags.tagsInUse            0                       # Average ticks per tags in use ((Tick/Count))
system.cpu0.dtb_walker_cache.tags.totalRefs            0                       # Total number of references to valid blocks. (Count)
system.cpu0.dtb_walker_cache.tags.sampledRefs            0                       # Sample count of references to valid blocks. (Count)
system.cpu0.dtb_walker_cache.tags.avgRefs          nan                       # Average number of references to valid blocks. ((Count/Count))
system.cpu0.dtb_walker_cache.tags.warmupTick            0                       # The tick when the warmup percentage was hit. (Tick)
system.cpu0.dtb_walker_cache.tags.tagAccesses            0                       # Number of tag accesses (Count)
system.cpu0.dtb_walker_cache.tags.dataAccesses            0                       # Number of data accesses (Count)
system.cpu0.dtb_walker_cache.tags.power_state.pwrStateResidencyTicks::UNDEFINED  39695445500                       # Cumulative time (in ticks) in various power states (Tick)
system.cpu0.fetch.icacheStallCycles           4081615                       # Number of cycles fetch is stalled on an Icache miss (Cycle)
system.cpu0.fetch.insts                      25890598                       # Number of instructions fetch has processed (Count)
system.cpu0.fetch.branches                    4885584                       # Number of branches that fetch encountered (Count)
system.cpu0.fetch.predictedBranches           1709329                       # Number of branches that fetch has predicted taken (Count)
system.cpu0.fetch.cycles                    154223306                       # Number of cycles fetch has run and was not squashing or blocked (Cycle)
system.cpu0.fetch.squashCycles                  29316                       # Number of cycles fetch has spent squashing (Cycle)
system.cpu0.fetch.miscStallCycles                2286                       # Number of cycles fetch has spent waiting on interrupts, or bad addresses, or out of MSHRs (Cycle)
system.cpu0.fetch.pendingTrapStallCycles        14956                       # Number of stall cycles due to pending traps (Cycle)
system.cpu0.fetch.icacheWaitRetryStallCycles           69                       # Number of stall cycles due to full MSHR (Cycle)
system.cpu0.fetch.cacheLines                  3947759                       # Number of cache lines fetched (Count)
system.cpu0.fetch.icacheSquashes                 3431                       # Number of outstanding Icache misses that were squashed (Count)
system.cpu0.fetch.nisnDist::samples         158336890                       # Number of instructions fetched each cycle (Total) (Count)
system.cpu0.fetch.nisnDist::mean             0.298915                       # Number of instructions fetched each cycle (Total) (Count)
system.cpu0.fetch.nisnDist::stdev            1.435707                       # Number of instructions fetched each cycle (Total) (Count)
system.cpu0.fetch.nisnDist::underflows              0      0.00%      0.00% # Number of instructions fetched each cycle (Total) (Count)
system.cpu0.fetch.nisnDist::0               150599577     95.11%     95.11% # Number of instructions fetched each cycle (Total) (Count)
system.cpu0.fetch.nisnDist::1                  601116      0.38%     95.49% # Number of instructions fetched each cycle (Total) (Count)
system.cpu0.fetch.nisnDist::2                  294555      0.19%     95.68% # Number of instructions fetched each cycle (Total) (Count)
system.cpu0.fetch.nisnDist::3                 1324183      0.84%     96.52% # Number of instructions fetched each cycle (Total) (Count)
system.cpu0.fetch.nisnDist::4                  124144      0.08%     96.59% # Number of instructions fetched each cycle (Total) (Count)
system.cpu0.fetch.nisnDist::5                  225831      0.14%     96.74% # Number of instructions fetched each cycle (Total) (Count)
system.cpu0.fetch.nisnDist::6                  229280      0.14%     96.88% # Number of instructions fetched each cycle (Total) (Count)
system.cpu0.fetch.nisnDist::7                  340556      0.22%     97.10% # Number of instructions fetched each cycle (Total) (Count)
system.cpu0.fetch.nisnDist::8                 4597648      2.90%    100.00% # Number of instructions fetched each cycle (Total) (Count)
system.cpu0.fetch.nisnDist::overflows               0      0.00%    100.00% # Number of instructions fetched each cycle (Total) (Count)
system.cpu0.fetch.nisnDist::min_value               0                       # Number of instructions fetched each cycle (Total) (Count)
system.cpu0.fetch.nisnDist::max_value               8                       # Number of instructions fetched each cycle (Total) (Count)
system.cpu0.fetch.nisnDist::total           158336890                       # Number of instructions fetched each cycle (Total) (Count)
system.cpu0.fetch.branchRate                 0.030769                       # Number of branch fetches per cycle (Ratio)
system.cpu0.fetch.rate                       0.163058                       # Number of inst fetches per cycle ((Count/Cycle))
system.cpu0.icache.demandHits::cpu00.inst      3944256                       # number of demand (read+write) hits (Count)
system.cpu0.icache.demandHits::total          3944256                       # number of demand (read+write) hits (Count)
system.cpu0.icache.overallHits::cpu00.inst      3944256                       # number of overall hits (Count)
system.cpu0.icache.overallHits::total         3944256                       # number of overall hits (Count)
system.cpu0.icache.demandMisses::cpu00.inst         3502                       # number of demand (read+write) misses (Count)
system.cpu0.icache.demandMisses::total           3502                       # number of demand (read+write) misses (Count)
system.cpu0.icache.overallMisses::cpu00.inst         3502                       # number of overall misses (Count)
system.cpu0.icache.overallMisses::total          3502                       # number of overall misses (Count)
system.cpu0.icache.demandMissLatency::cpu00.inst    243095998                       # number of demand (read+write) miss ticks (Tick)
system.cpu0.icache.demandMissLatency::total    243095998                       # number of demand (read+write) miss ticks (Tick)
system.cpu0.icache.overallMissLatency::cpu00.inst    243095998                       # number of overall miss ticks (Tick)
system.cpu0.icache.overallMissLatency::total    243095998                       # number of overall miss ticks (Tick)
system.cpu0.icache.demandAccesses::cpu00.inst      3947758                       # number of demand (read+write) accesses (Count)
system.cpu0.icache.demandAccesses::total      3947758                       # number of demand (read+write) accesses (Count)
system.cpu0.icache.overallAccesses::cpu00.inst      3947758                       # number of overall (read+write) accesses (Count)
system.cpu0.icache.overallAccesses::total      3947758                       # number of overall (read+write) accesses (Count)
system.cpu0.icache.demandMissRate::cpu00.inst     0.000887                       # miss rate for demand accesses (Ratio)
system.cpu0.icache.demandMissRate::total     0.000887                       # miss rate for demand accesses (Ratio)
system.cpu0.icache.overallMissRate::cpu00.inst     0.000887                       # miss rate for overall accesses (Ratio)
system.cpu0.icache.overallMissRate::total     0.000887                       # miss rate for overall accesses (Ratio)
system.cpu0.icache.demandAvgMissLatency::cpu00.inst 69416.332953                       # average overall miss latency in ticks ((Tick/Count))
system.cpu0.icache.demandAvgMissLatency::total 69416.332953                       # average overall miss latency in ticks ((Tick/Count))
system.cpu0.icache.overallAvgMissLatency::cpu00.inst 69416.332953                       # average overall miss latency ((Tick/Count))
system.cpu0.icache.overallAvgMissLatency::total 69416.332953                       # average overall miss latency ((Tick/Count))
system.cpu0.icache.blockedCycles::no_mshrs         1439                       # number of cycles access was blocked (Cycle)
system.cpu0.icache.blockedCycles::no_targets            0                       # number of cycles access was blocked (Cycle)
system.cpu0.icache.blockedCauses::no_mshrs           14                       # number of times access was blocked (Count)
system.cpu0.icache.blockedCauses::no_targets            0                       # number of times access was blocked (Count)
system.cpu0.icache.avgBlocked::no_mshrs    102.785714                       # average number of cycles each access was blocked ((Cycle/Count))
system.cpu0.icache.avgBlocked::no_targets          nan                       # average number of cycles each access was blocked ((Cycle/Count))
system.cpu0.icache.writebacks::writebacks         2239                       # number of writebacks (Count)
system.cpu0.icache.writebacks::total             2239                       # number of writebacks (Count)
system.cpu0.icache.demandMshrHits::cpu00.inst          749                       # number of demand (read+write) MSHR hits (Count)
system.cpu0.icache.demandMshrHits::total          749                       # number of demand (read+write) MSHR hits (Count)
system.cpu0.icache.overallMshrHits::cpu00.inst          749                       # number of overall MSHR hits (Count)
system.cpu0.icache.overallMshrHits::total          749                       # number of overall MSHR hits (Count)
system.cpu0.icache.demandMshrMisses::cpu00.inst         2753                       # number of demand (read+write) MSHR misses (Count)
system.cpu0.icache.demandMshrMisses::total         2753                       # number of demand (read+write) MSHR misses (Count)
system.cpu0.icache.overallMshrMisses::cpu00.inst         2753                       # number of overall MSHR misses (Count)
system.cpu0.icache.overallMshrMisses::total         2753                       # number of overall MSHR misses (Count)
system.cpu0.icache.demandMshrMissLatency::cpu00.inst    196729749                       # number of demand (read+write) MSHR miss ticks (Tick)
system.cpu0.icache.demandMshrMissLatency::total    196729749                       # number of demand (read+write) MSHR miss ticks (Tick)
system.cpu0.icache.overallMshrMissLatency::cpu00.inst    196729749                       # number of overall MSHR miss ticks (Tick)
system.cpu0.icache.overallMshrMissLatency::total    196729749                       # number of overall MSHR miss ticks (Tick)
system.cpu0.icache.demandMshrMissRate::cpu00.inst     0.000697                       # mshr miss ratio for demand accesses (Ratio)
system.cpu0.icache.demandMshrMissRate::total     0.000697                       # mshr miss ratio for demand accesses (Ratio)
system.cpu0.icache.overallMshrMissRate::cpu00.inst     0.000697                       # mshr miss ratio for overall accesses (Ratio)
system.cpu0.icache.overallMshrMissRate::total     0.000697                       # mshr miss ratio for overall accesses (Ratio)
system.cpu0.icache.demandAvgMshrMissLatency::cpu00.inst 71460.134036                       # average overall mshr miss latency ((Tick/Count))
system.cpu0.icache.demandAvgMshrMissLatency::total 71460.134036                       # average overall mshr miss latency ((Tick/Count))
system.cpu0.icache.overallAvgMshrMissLatency::cpu00.inst 71460.134036                       # average overall mshr miss latency ((Tick/Count))
system.cpu0.icache.overallAvgMshrMissLatency::total 71460.134036                       # average overall mshr miss latency ((Tick/Count))
system.cpu0.icache.replacements                  2239                       # number of replacements (Count)
system.cpu0.icache.ReadReq.hits::cpu00.inst      3944256                       # number of ReadReq hits (Count)
system.cpu0.icache.ReadReq.hits::total        3944256                       # number of ReadReq hits (Count)
system.cpu0.icache.ReadReq.misses::cpu00.inst         3502                       # number of ReadReq misses (Count)
system.cpu0.icache.ReadReq.misses::total         3502                       # number of ReadReq misses (Count)
system.cpu0.icache.ReadReq.missLatency::cpu00.inst    243095998                       # number of ReadReq miss ticks (Tick)
system.cpu0.icache.ReadReq.missLatency::total    243095998                       # number of ReadReq miss ticks (Tick)
system.cpu0.icache.ReadReq.accesses::cpu00.inst      3947758                       # number of ReadReq accesses(hits+misses) (Count)
system.cpu0.icache.ReadReq.accesses::total      3947758                       # number of ReadReq accesses(hits+misses) (Count)
system.cpu0.icache.ReadReq.missRate::cpu00.inst     0.000887                       # miss rate for ReadReq accesses (Ratio)
system.cpu0.icache.ReadReq.missRate::total     0.000887                       # miss rate for ReadReq accesses (Ratio)
system.cpu0.icache.ReadReq.avgMissLatency::cpu00.inst 69416.332953                       # average ReadReq miss latency ((Tick/Count))
system.cpu0.icache.ReadReq.avgMissLatency::total 69416.332953                       # average ReadReq miss latency ((Tick/Count))
system.cpu0.icache.ReadReq.mshrHits::cpu00.inst          749                       # number of ReadReq MSHR hits (Count)
system.cpu0.icache.ReadReq.mshrHits::total          749                       # number of ReadReq MSHR hits (Count)
system.cpu0.icache.ReadReq.mshrMisses::cpu00.inst         2753                       # number of ReadReq MSHR misses (Count)
system.cpu0.icache.ReadReq.mshrMisses::total         2753                       # number of ReadReq MSHR misses (Count)
system.cpu0.icache.ReadReq.mshrMissLatency::cpu00.inst    196729749                       # number of ReadReq MSHR miss ticks (Tick)
system.cpu0.icache.ReadReq.mshrMissLatency::total    196729749                       # number of ReadReq MSHR miss ticks (Tick)
system.cpu0.icache.ReadReq.mshrMissRate::cpu00.inst     0.000697                       # mshr miss rate for ReadReq accesses (Ratio)
system.cpu0.icache.ReadReq.mshrMissRate::total     0.000697                       # mshr miss rate for ReadReq accesses (Ratio)
system.cpu0.icache.ReadReq.avgMshrMissLatency::cpu00.inst 71460.134036                       # average ReadReq mshr miss latency ((Tick/Count))
system.cpu0.icache.ReadReq.avgMshrMissLatency::total 71460.134036                       # average ReadReq mshr miss latency ((Tick/Count))
system.cpu0.icache.power_state.pwrStateResidencyTicks::UNDEFINED  39695445500                       # Cumulative time (in ticks) in various power states (Tick)
system.cpu0.icache.tags.tagsInUse          511.552866                       # Average ticks per tags in use ((Tick/Count))
system.cpu0.icache.tags.totalRefs             3947008                       # Total number of references to valid blocks. (Count)
system.cpu0.icache.tags.sampledRefs              2752                       # Sample count of references to valid blocks. (Count)
system.cpu0.icache.tags.avgRefs           1434.232558                       # Average number of references to valid blocks. ((Count/Count))
system.cpu0.icache.tags.warmupTick              80000                       # The tick when the warmup percentage was hit. (Tick)
system.cpu0.icache.tags.occupancies::cpu00.inst   511.552866                       # Average occupied blocks per tick, per requestor ((Count/Tick))
system.cpu0.icache.tags.avgOccs::cpu00.inst     0.999127                       # Average percentage of cache occupancy ((Ratio/Tick))
system.cpu0.icache.tags.avgOccs::total       0.999127                       # Average percentage of cache occupancy ((Ratio/Tick))
system.cpu0.icache.tags.occupanciesTaskId::1024          511                       # Occupied blocks per task id (Count)
system.cpu0.icache.tags.ageTaskId_1024::0          113                       # Occupied blocks per task id, per block age (Count)
system.cpu0.icache.tags.ageTaskId_1024::1           67                       # Occupied blocks per task id, per block age (Count)
system.cpu0.icache.tags.ageTaskId_1024::4          331                       # Occupied blocks per task id, per block age (Count)
system.cpu0.icache.tags.ratioOccsTaskId::1024     0.998047                       # Ratio of occupied blocks and all blocks, per task id (Ratio)
system.cpu0.icache.tags.tagAccesses           7898268                       # Number of tag accesses (Count)
system.cpu0.icache.tags.dataAccesses          7898268                       # Number of data accesses (Count)
system.cpu0.icache.tags.power_state.pwrStateResidencyTicks::UNDEFINED  39695445500                       # Cumulative time (in ticks) in various power states (Tick)
system.cpu0.iew.idleCycles                          0                       # Number of cycles IEW is idle (Cycle)
system.cpu0.iew.squashCycles                    13313                       # Number of cycles IEW is squashing (Cycle)
system.cpu0.iew.blockCycles                  35803273                       # Number of cycles IEW is blocking (Cycle)
system.cpu0.iew.unblockCycles                13928801                       # Number of cycles IEW is unblocking (Cycle)
system.cpu0.iew.dispatchedInsts              47130776                       # Number of instructions dispatched to IQ (Count)
system.cpu0.iew.dispSquashedInsts                1052                       # Number of squashed instructions skipped by dispatch (Count)
system.cpu0.iew.dispLoadInsts                 7858684                       # Number of dispatched load instructions (Count)
system.cpu0.iew.dispStoreInsts                1330330                       # Number of dispatched store instructions (Count)
system.cpu0.iew.dispNonSpecInsts                  631                       # Number of dispatched non-speculative instructions (Count)
system.cpu0.iew.iqFullEvents                   275747                       # Number of times the IQ has become full, causing a stall (Count)
system.cpu0.iew.lsqFullEvents                13618506                       # Number of times the LSQ has become full, causing a stall (Count)
system.cpu0.iew.memOrderViolationEvents           298                       # Number of memory order violations (Count)
system.cpu0.iew.predictedTakenIncorrect          2798                       # Number of branches that were predicted taken incorrectly (Count)
system.cpu0.iew.predictedNotTakenIncorrect         8663                       # Number of branches that were predicted not taken incorrectly (Count)
system.cpu0.iew.branchMispredicts               11461                       # Number of branch mispredicts detected at execute (Count)
system.cpu0.iew.instsToCommit                46958810                       # Cumulative count of insts sent to commit (Count)
system.cpu0.iew.writebackCount               46949298                       # Cumulative count of insts written-back (Count)
system.cpu0.iew.producerInst                 33827394                       # Number of instructions producing a value (Count)
system.cpu0.iew.consumerInst                 55766492                       # Number of instructions consuming a value (Count)
system.cpu0.iew.wbRate                       0.295684                       # Insts written-back per cycle ((Count/Cycle))
system.cpu0.iew.wbFanout                     0.606590                       # Average fanout of values written-back ((Count/Count))
system.cpu0.interrupts.clk_domain.clock          4000                       # Clock period in ticks (Tick)
system.cpu0.itb_walker_cache.blockedCycles::no_mshrs            0                       # number of cycles access was blocked (Cycle)
system.cpu0.itb_walker_cache.blockedCycles::no_targets            0                       # number of cycles access was blocked (Cycle)
system.cpu0.itb_walker_cache.blockedCauses::no_mshrs            0                       # number of times access was blocked (Count)
system.cpu0.itb_walker_cache.blockedCauses::no_targets            0                       # number of times access was blocked (Count)
system.cpu0.itb_walker_cache.avgBlocked::no_mshrs          nan                       # average number of cycles each access was blocked ((Cycle/Count))
system.cpu0.itb_walker_cache.avgBlocked::no_targets          nan                       # average number of cycles each access was blocked ((Cycle/Count))
system.cpu0.itb_walker_cache.replacements            0                       # number of replacements (Count)
system.cpu0.itb_walker_cache.power_state.pwrStateResidencyTicks::UNDEFINED  39695445500                       # Cumulative time (in ticks) in various power states (Tick)
system.cpu0.itb_walker_cache.tags.tagsInUse            0                       # Average ticks per tags in use ((Tick/Count))
[...]
system.membus.pktSize_system.cpu13.dcache.mem_side_port::system.mem_ctrls0.port     16001088                       # Cumulative packet size per connected requestor and responder (Byte)
system.membus.pktSize_system.cpu13.dcache.mem_side_port::system.mem_ctrls1.port     16005120                       # Cumulative packet size per connected requestor and responder (Byte)
system.membus.pktSize_system.cpu13.dcache.mem_side_port::total     32006208                       # Cumulative packet size per connected requestor and responder (Byte)
system.membus.pktSize_system.cpu14.icache.mem_side_port::system.mem_ctrls0.port         2048                       # Cumulative packet size per connected requestor and responder (Byte)
system.membus.pktSize_system.cpu14.icache.mem_side_port::system.mem_ctrls1.port         1792                       # Cumulative packet size per connected requestor and responder (Byte)
system.membus.pktSize_system.cpu14.icache.mem_side_port::total         3840                       # Cumulative packet size per connected requestor and responder (Byte)
system.membus.pktSize_system.cpu14.dcache.mem_side_port::system.mem_ctrls0.port     16003520                       # Cumulative packet size per connected requestor and responder (Byte)
system.membus.pktSize_system.cpu14.dcache.mem_side_port::system.mem_ctrls1.port     16002816                       # Cumulative packet size per connected requestor and responder (Byte)
system.membus.pktSize_system.cpu14.dcache.mem_side_port::total     32006336                       # Cumulative packet size per connected requestor and responder (Byte)
system.membus.pktSize_system.cpu15.icache.mem_side_port::system.mem_ctrls0.port         2304                       # Cumulative packet size per connected requestor and responder (Byte)
system.membus.pktSize_system.cpu15.icache.mem_side_port::system.mem_ctrls1.port         1984                       # Cumulative packet size per connected requestor and responder (Byte)
system.membus.pktSize_system.cpu15.icache.mem_side_port::total         4288                       # Cumulative packet size per connected requestor and responder (Byte)
system.membus.pktSize_system.cpu15.dcache.mem_side_port::system.mem_ctrls0.port     16005312                       # Cumulative packet size per connected requestor and responder (Byte)
system.membus.pktSize_system.cpu15.dcache.mem_side_port::system.mem_ctrls1.port     16001280                       # Cumulative packet size per connected requestor and responder (Byte)
system.membus.pktSize_system.cpu15.dcache.mem_side_port::total     32006592                       # Cumulative packet size per connected requestor and responder (Byte)
system.membus.pktSize::total                537067584                       # Cumulative packet size per connected requestor and responder (Byte)
system.membus.snoops                             4914                       # Total snoops (Count)
system.membus.snoopTraffic                     299392                       # Total snoop traffic (Byte)
system.membus.snoopFanout::samples            5948313                       # Request fanout histogram (Count)
system.membus.snoopFanout::mean              0.009588                       # Request fanout histogram (Count)
system.membus.snoopFanout::stdev             0.280040                       # Request fanout histogram (Count)
system.membus.snoopFanout::underflows               0      0.00%      0.00% # Request fanout histogram (Count)
system.membus.snoopFanout::0                  5926307     99.63%     99.63% # Request fanout histogram (Count)
system.membus.snoopFanout::1                    17551      0.30%     99.93% # Request fanout histogram (Count)
system.membus.snoopFanout::2                      475      0.01%     99.93% # Request fanout histogram (Count)
system.membus.snoopFanout::3                      393      0.01%     99.94% # Request fanout histogram (Count)
system.membus.snoopFanout::4                      292      0.00%     99.94% # Request fanout histogram (Count)
system.membus.snoopFanout::5                      287      0.00%     99.95% # Request fanout histogram (Count)
system.membus.snoopFanout::6                      251      0.00%     99.95% # Request fanout histogram (Count)
system.membus.snoopFanout::7                      233      0.00%     99.96% # Request fanout histogram (Count)
system.membus.snoopFanout::8                      226      0.00%     99.96% # Request fanout histogram (Count)
system.membus.snoopFanout::9                      222      0.00%     99.97% # Request fanout histogram (Count)
system.membus.snoopFanout::10                     221      0.00%     99.97% # Request fanout histogram (Count)
system.membus.snoopFanout::11                     220      0.00%     99.97% # Request fanout histogram (Count)
system.membus.snoopFanout::12                     223      0.00%     99.98% # Request fanout histogram (Count)
system.membus.snoopFanout::13                     231      0.00%     99.98% # Request fanout histogram (Count)
system.membus.snoopFanout::14                     234      0.00%     99.98% # Request fanout histogram (Count)
system.membus.snoopFanout::15                     938      0.02%    100.00% # Request fanout histogram (Count)
system.membus.snoopFanout::16                       6      0.00%    100.00% # Request fanout histogram (Count)
system.membus.snoopFanout::17                       1      0.00%    100.00% # Request fanout histogram (Count)
system.membus.snoopFanout::18                       1      0.00%    100.00% # Request fanout histogram (Count)
system.membus.snoopFanout::19                       1      0.00%    100.00% # Request fanout histogram (Count)
system.membus.snoopFanout::20                       0      0.00%    100.00% # Request fanout histogram (Count)
system.membus.snoopFanout::21                       0      0.00%    100.00% # Request fanout histogram (Count)
system.membus.snoopFanout::22                       0      0.00%    100.00% # Request fanout histogram (Count)
system.membus.snoopFanout::23                       0      0.00%    100.00% # Request fanout histogram (Count)
system.membus.snoopFanout::24                       0      0.00%    100.00% # Request fanout histogram (Count)
system.membus.snoopFanout::25                       0      0.00%    100.00% # Request fanout histogram (Count)
system.membus.snoopFanout::26                       0      0.00%    100.00% # Request fanout histogram (Count)
system.membus.snoopFanout::27                       0      0.00%    100.00% # Request fanout histogram (Count)
system.membus.snoopFanout::28                       0      0.00%    100.00% # Request fanout histogram (Count)
system.membus.snoopFanout::29                       0      0.00%    100.00% # Request fanout histogram (Count)
system.membus.snoopFanout::30                       0      0.00%    100.00% # Request fanout histogram (Count)
system.membus.snoopFanout::31                       0      0.00%    100.00% # Request fanout histogram (Count)
system.membus.snoopFanout::32                       0      0.00%    100.00% # Request fanout histogram (Count)
system.membus.snoopFanout::33                       0      0.00%    100.00% # Request fanout histogram (Count)
system.membus.snoopFanout::34                       0      0.00%    100.00% # Request fanout histogram (Count)
system.membus.snoopFanout::35                       0      0.00%    100.00% # Request fanout histogram (Count)
system.membus.snoopFanout::36                       0      0.00%    100.00% # Request fanout histogram (Count)
system.membus.snoopFanout::37                       0      0.00%    100.00% # Request fanout histogram (Count)
system.membus.snoopFanout::38                       0      0.00%    100.00% # Request fanout histogram (Count)
system.membus.snoopFanout::39                       0      0.00%    100.00% # Request fanout histogram (Count)
system.membus.snoopFanout::40                       0      0.00%    100.00% # Request fanout histogram (Count)
system.membus.snoopFanout::41                       0      0.00%    100.00% # Request fanout histogram (Count)
system.membus.snoopFanout::42                       0      0.00%    100.00% # Request fanout histogram (Count)
system.membus.snoopFanout::43                       0      0.00%    100.00% # Request fanout histogram (Count)
system.membus.snoopFanout::44                       0      0.00%    100.00% # Request fanout histogram (Count)
system.membus.snoopFanout::45                       0      0.00%    100.00% # Request fanout histogram (Count)
system.membus.snoopFanout::46                       0      0.00%    100.00% # Request fanout histogram (Count)
system.membus.snoopFanout::47                       0      0.00%    100.00% # Request fanout histogram (Count)
system.membus.snoopFanout::48                       0      0.00%    100.00% # Request fanout histogram (Count)
system.membus.snoopFanout::49                       0      0.00%    100.00% # Request fanout histogram (Count)
system.membus.snoopFanout::50                       0      0.00%    100.00% # Request fanout histogram (Count)
system.membus.snoopFanout::51                       0      0.00%    100.00% # Request fanout histogram (Count)
system.membus.snoopFanout::52                       0      0.00%    100.00% # Request fanout histogram (Count)
system.membus.snoopFanout::53                       0      0.00%    100.00% # Request fanout histogram (Count)
system.membus.snoopFanout::54                       0      0.00%    100.00% # Request fanout histogram (Count)
system.membus.snoopFanout::55                       0      0.00%    100.00% # Request fanout histogram (Count)
system.membus.snoopFanout::56                       0      0.00%    100.00% # Request fanout histogram (Count)
system.membus.snoopFanout::57                       0      0.00%    100.00% # Request fanout histogram (Count)
system.membus.snoopFanout::58                       0      0.00%    100.00% # Request fanout histogram (Count)
system.membus.snoopFanout::59                       0      0.00%    100.00% # Request fanout histogram (Count)
system.membus.snoopFanout::60                       0      0.00%    100.00% # Request fanout histogram (Count)
system.membus.snoopFanout::61                       0      0.00%    100.00% # Request fanout histogram (Count)
system.membus.snoopFanout::62                       0      0.00%    100.00% # Request fanout histogram (Count)
system.membus.snoopFanout::63                       0      0.00%    100.00% # Request fanout histogram (Count)
system.membus.snoopFanout::64                       0      0.00%    100.00% # Request fanout histogram (Count)
system.membus.snoopFanout::overflows                0      0.00%    100.00% # Request fanout histogram (Count)
system.membus.snoopFanout::min_value                0                       # Request fanout histogram (Count)
system.membus.snoopFanout::max_value               19                       # Request fanout histogram (Count)
system.membus.snoopFanout::total              5948313                       # Request fanout histogram (Count)
system.membus.power_state.pwrStateResidencyTicks::UNDEFINED  39695445500                       # Cumulative time (in ticks) in various power states (Tick)
system.membus.reqLayer32.occupancy        12231385233                       # Layer occupancy (ticks) (Tick)
system.membus.reqLayer32.utilization              0.3                       # Layer utilization (Ratio)
system.membus.reqLayer33.occupancy        12222866354                       # Layer occupancy (ticks) (Tick)
system.membus.reqLayer33.utilization              0.3                       # Layer utilization (Ratio)
system.membus.respLayer1.occupancy           13941491                       # Layer occupancy (ticks) (Tick)
system.membus.respLayer1.utilization              0.0                       # Layer utilization (Ratio)
system.membus.respLayer11.occupancy            662494                       # Layer occupancy (ticks) (Tick)
system.membus.respLayer11.utilization             0.0                       # Layer utilization (Ratio)
system.membus.respLayer12.occupancy        1770974992                       # Layer occupancy (ticks) (Tick)
system.membus.respLayer12.utilization             0.0                       # Layer utilization (Ratio)
system.membus.respLayer16.occupancy            650747                       # Layer occupancy (ticks) (Tick)
system.membus.respLayer16.utilization             0.0                       # Layer utilization (Ratio)
system.membus.respLayer17.occupancy        1775908146                       # Layer occupancy (ticks) (Tick)
system.membus.respLayer17.utilization             0.0                       # Layer utilization (Ratio)
system.membus.respLayer2.occupancy         3680843579                       # Layer occupancy (ticks) (Tick)
system.membus.respLayer2.utilization              0.1                       # Layer utilization (Ratio)
system.membus.respLayer21.occupancy            359249                       # Layer occupancy (ticks) (Tick)
system.membus.respLayer21.utilization             0.0                       # Layer utilization (Ratio)
system.membus.respLayer22.occupancy        1766827443                       # Layer occupancy (ticks) (Tick)
system.membus.respLayer22.utilization             0.0                       # Layer utilization (Ratio)
system.membus.respLayer26.occupancy            347250                       # Layer occupancy (ticks) (Tick)
system.membus.respLayer26.utilization             0.0                       # Layer utilization (Ratio)
system.membus.respLayer27.occupancy        1766868726                       # Layer occupancy (ticks) (Tick)
system.membus.respLayer27.utilization             0.0                       # Layer utilization (Ratio)
system.membus.respLayer31.occupancy            322000                       # Layer occupancy (ticks) (Tick)
system.membus.respLayer31.utilization             0.0                       # Layer utilization (Ratio)
system.membus.respLayer32.occupancy        1764655341                       # Layer occupancy (ticks) (Tick)
system.membus.respLayer32.utilization             0.0                       # Layer utilization (Ratio)
system.membus.respLayer36.occupancy            354751                       # Layer occupancy (ticks) (Tick)
system.membus.respLayer36.utilization             0.0                       # Layer utilization (Ratio)
system.membus.respLayer37.occupancy        1770359809                       # Layer occupancy (ticks) (Tick)
system.membus.respLayer37.utilization             0.0                       # Layer utilization (Ratio)
system.membus.respLayer41.occupancy            337750                       # Layer occupancy (ticks) (Tick)
system.membus.respLayer41.utilization             0.0                       # Layer utilization (Ratio)
system.membus.respLayer42.occupancy        1769273464                       # Layer occupancy (ticks) (Tick)
system.membus.respLayer42.utilization             0.0                       # Layer utilization (Ratio)
system.membus.respLayer46.occupancy            339001                       # Layer occupancy (ticks) (Tick)
system.membus.respLayer46.utilization             0.0                       # Layer utilization (Ratio)
system.membus.respLayer47.occupancy        1772580040                       # Layer occupancy (ticks) (Tick)
system.membus.respLayer47.utilization             0.0                       # Layer utilization (Ratio)
system.membus.respLayer51.occupancy            321500                       # Layer occupancy (ticks) (Tick)
system.membus.respLayer51.utilization             0.0                       # Layer utilization (Ratio)
system.membus.respLayer52.occupancy        1768681071                       # Layer occupancy (ticks) (Tick)
system.membus.respLayer52.utilization             0.0                       # Layer utilization (Ratio)
system.membus.respLayer56.occupancy            336750                       # Layer occupancy (ticks) (Tick)
system.membus.respLayer56.utilization             0.0                       # Layer utilization (Ratio)
system.membus.respLayer57.occupancy        1770618471                       # Layer occupancy (ticks) (Tick)
system.membus.respLayer57.utilization             0.0                       # Layer utilization (Ratio)
system.membus.respLayer6.occupancy             663248                       # Layer occupancy (ticks) (Tick)
system.membus.respLayer6.utilization              0.0                       # Layer utilization (Ratio)
system.membus.respLayer61.occupancy            319000                       # Layer occupancy (ticks) (Tick)
system.membus.respLayer61.utilization             0.0                       # Layer utilization (Ratio)
system.membus.respLayer62.occupancy        1771624655                       # Layer occupancy (ticks) (Tick)
system.membus.respLayer62.utilization             0.0                       # Layer utilization (Ratio)
system.membus.respLayer66.occupancy            321749                       # Layer occupancy (ticks) (Tick)
system.membus.respLayer66.utilization             0.0                       # Layer utilization (Ratio)
system.membus.respLayer67.occupancy        1775025554                       # Layer occupancy (ticks) (Tick)
system.membus.respLayer67.utilization             0.0                       # Layer utilization (Ratio)
system.membus.respLayer7.occupancy         1772435332                       # Layer occupancy (ticks) (Tick)
system.membus.respLayer7.utilization              0.0                       # Layer utilization (Ratio)
system.membus.respLayer71.occupancy            320750                       # Layer occupancy (ticks) (Tick)
system.membus.respLayer71.utilization             0.0                       # Layer utilization (Ratio)
system.membus.respLayer72.occupancy        1766819848                       # Layer occupancy (ticks) (Tick)
system.membus.respLayer72.utilization             0.0                       # Layer utilization (Ratio)
system.membus.respLayer76.occupancy            359749                       # Layer occupancy (ticks) (Tick)
system.membus.respLayer76.utilization             0.0                       # Layer utilization (Ratio)
system.membus.respLayer77.occupancy        1770027037                       # Layer occupancy (ticks) (Tick)
system.membus.respLayer77.utilization             0.0                       # Layer utilization (Ratio)
system.membus.snoop_filter.totRequests       11848073                       # Total number of requests made to the snoop filter. (Count)
system.membus.snoop_filter.hitSingleRequests      5899710                       # Number of requests hitting in the snoop filter with a single holder of the requested data. (Count)
system.membus.snoop_filter.hitMultiRequests        22500                       # Number of requests hitting in the snoop filter with multiple (>1) holders of the requested data. (Count)
system.membus.snoop_filter.totSnoops                0                       # Total number of snoops made to the snoop filter. (Count)
system.membus.snoop_filter.hitSingleSnoops            0                       # Number of snoops hitting in the snoop filter with a single holder of the requested data. (Count)
system.membus.snoop_filter.hitMultiSnoops            0                       # Number of snoops hitting in the snoop filter with multiple (>1) holders of the requested data. (Count)
system.voltage_domain.voltage                       1                       # Voltage in Volts (Volt)
system.workload.inst.arm                            0                       # number of arm instructions executed (Count)
system.workload.inst.quiesce                        0                       # number of quiesce instructions executed (Count)

---------- End Simulation Statistics   ----------
