
---------- Begin Simulation Statistics ----------
simSeconds                                   0.047185                       # Number of seconds simulated (Second)
simTicks                                  47184535750                       # Number of ticks simulated (Tick)
finalTick                                 47184535750                       # Number of ticks from beginning of simulation (restored from checkpoints and never reset) (Tick)
simFreq                                  1000000000000                       # The number of ticks per simulated second ((Tick/Second))
hostSeconds                                   1932.98                       # Real time elapsed on the host (Second)
hostTickRate                                 24410207                       # The number of ticks simulated per host second (ticks/s) ((Tick/Second))
hostMemory                                    7924944                       # Number of bytes of host memory used (Byte)
simInsts                                    118772250                       # Number of instructions simulated (Count)
simOps                                      212532744                       # Number of ops (including micro ops) simulated (Count)
hostInstRate                                    61445                       # Simulator instruction rate (inst/s) ((Count/Second))
hostOpRate                                     109951                       # Simulator op (including micro ops) rate (op/s) ((Count/Second))
system.clk_domain.clock                          1000                       # Clock period in ticks (Tick)
system.cpu0.numCycles                       188738144                       # Number of cpu cycles simulated (Cycle)
system.cpu0.numWorkItemsStarted                     0                       # Number of work items this cpu started (Count)
system.cpu0.numWorkItemsCompleted                   0                       # Number of work items this cpu completed (Count)
system.cpu0.instsAdded                       77006247                       # Number of instructions added to the IQ (excludes non-spec) (Count)
system.cpu0.nonSpecInstsAdded                    1315                       # Number of non-speculative instructions added to the IQ (Count)
system.cpu0.instsIssued                      77032711                       # Number of instructions issued (Count)
system.cpu0.squashedInstsIssued                  2159                       # Number of squashed instructions issued (Count)
system.cpu0.squashedInstsExamined            24485178                       # Number of squashed instructions iterated over during squash; mainly for profiling (Count)
system.cpu0.squashedOperandsExamined           744557                       # Number of squashed operands that are examined and possibly removed from graph (Count)
system.cpu0.squashedNonSpecRemoved                411                       # Number of squashed non-spec instructions that were removed (Count)
system.cpu0.numIssuedDist::samples          188341563                       # Number of insts issued each cycle (Count)
system.cpu0.numIssuedDist::mean              0.409005                       # Number of insts issued each cycle (Count)
system.cpu0.numIssuedDist::stdev             1.385282                       # Number of insts issued each cycle (Count)
system.cpu0.numIssuedDist::underflows               0      0.00%      0.00% # Number of insts issued each cycle (Count)
system.cpu0.numIssuedDist::0                166402948     88.35%     88.35% # Number of insts issued each cycle (Count)
system.cpu0.numIssuedDist::1                  6262993      3.33%     91.68% # Number of insts issued each cycle (Count)
system.cpu0.numIssuedDist::2                  3867161      2.05%     93.73% # Number of insts issued each cycle (Count)
system.cpu0.numIssuedDist::3                  1987869      1.06%     94.79% # Number of insts issued each cycle (Count)
system.cpu0.numIssuedDist::4                  2597192      1.38%     96.16% # Number of insts issued each cycle (Count)
system.cpu0.numIssuedDist::5                  2173444      1.15%     97.32% # Number of insts issued each cycle (Count)
system.cpu0.numIssuedDist::6                  1491066      0.79%     98.11% # Number of insts issued each cycle (Count)
system.cpu0.numIssuedDist::7                  1601715      0.85%     98.96% # Number of insts issued each cycle (Count)
system.cpu0.numIssuedDist::8                  1957175      1.04%    100.00% # Number of insts issued each cycle (Count)
system.cpu0.numIssuedDist::overflows                0      0.00%    100.00% # Number of insts issued each cycle (Count)
system.cpu0.numIssuedDist::min_value                0                       # Number of insts issued each cycle (Count)
system.cpu0.numIssuedDist::max_value                8                       # Number of insts issued each cycle (Count)
system.cpu0.numIssuedDist::total            188341563                       # Number of insts issued each cycle (Count)
system.cpu0.statFuBusy::No_OpClass                  0      0.00%      0.00% # attempts to use FU when none available (Count)
system.cpu0.statFuBusy::IntAlu                  39695      0.97%      0.97% # attempts to use FU when none available (Count)
system.cpu0.statFuBusy::IntMult                     0      0.00%      0.97% # attempts to use FU when none available (Count)
system.cpu0.statFuBusy::IntDiv                      0      0.00%      0.97% # attempts to use FU when none available (Count)
system.cpu0.statFuBusy::FloatAdd                    0      0.00%      0.97% # attempts to use FU when none available (Count)
system.cpu0.statFuBusy::FloatCmp                    0      0.00%      0.97% # attempts to use FU when none available (Count)
system.cpu0.statFuBusy::FloatCvt                    8      0.00%      0.97% # attempts to use FU when none available (Count)
system.cpu0.statFuBusy::FloatMult                   0      0.00%      0.97% # attempts to use FU when none available (Count)
system.cpu0.statFuBusy::FloatMultAcc                0      0.00%      0.97% # attempts to use FU when none available (Count)
system.cpu0.statFuBusy::FloatDiv                    0      0.00%      0.97% # attempts to use FU when none available (Count)
system.cpu0.statFuBusy::FloatMisc                   0      0.00%      0.97% # attempts to use FU when none available (Count)
system.cpu0.statFuBusy::FloatSqrt                   0      0.00%      0.97% # attempts to use FU when none available (Count)
system.cpu0.statFuBusy::SimdAdd                     2      0.00%      0.97% # attempts to use FU when none available (Count)
system.cpu0.statFuBusy::SimdAddAcc                  0      0.00%      0.97% # attempts to use FU when none available (Count)
system.cpu0.statFuBusy::SimdAlu                   109      0.00%      0.97% # attempts to use FU when none available (Count)
system.cpu0.statFuBusy::SimdCmp                     0      0.00%      0.97% # attempts to use FU when none available (Count)
system.cpu0.statFuBusy::SimdCvt                    88      0.00%      0.97% # attempts to use FU when none available (Count)
system.cpu0.statFuBusy::SimdMisc                   50      0.00%      0.97% # attempts to use FU when none available (Count)
system.cpu0.statFuBusy::SimdMult                    0      0.00%      0.97% # attempts to use FU when none available (Count)
system.cpu0.statFuBusy::SimdMultAcc                 0      0.00%      0.97% # attempts to use FU when none available (Count)
system.cpu0.statFuBusy::SimdShift                  15      0.00%      0.97% # attempts to use FU when none available (Count)
system.cpu0.statFuBusy::SimdShiftAcc                0      0.00%      0.97% # attempts to use FU when none available (Count)
system.cpu0.statFuBusy::SimdDiv                     0      0.00%      0.97% # attempts to use FU when none available (Count)
system.cpu0.statFuBusy::SimdSqrt                    0      0.00%      0.97% # attempts to use FU when none available (Count)
system.cpu0.statFuBusy::SimdFloatAdd           561368     13.68%     14.65% # attempts to use FU when none available (Count)
system.cpu0.statFuBusy::SimdFloatAlu                0      0.00%     14.65% # attempts to use FU when none available (Count)
system.cpu0.statFuBusy::SimdFloatCmp                0      0.00%     14.65% # attempts to use FU when none available (Count)
system.cpu0.statFuBusy::SimdFloatCvt                0      0.00%     14.65% # attempts to use FU when none available (Count)
system.cpu0.statFuBusy::SimdFloatDiv                0      0.00%     14.65% # attempts to use FU when none available (Count)
system.cpu0.statFuBusy::SimdFloatMisc               0      0.00%     14.65% # attempts to use FU when none available (Count)
system.cpu0.statFuBusy::SimdFloatMult               0      0.00%     14.65% # attempts to use FU when none available (Count)
system.cpu0.statFuBusy::SimdFloatMultAcc            0      0.00%     14.65% # attempts to use FU when none available (Count)
system.cpu0.statFuBusy::SimdFloatSqrt               0      0.00%     14.65% # attempts to use FU when none available (Count)
system.cpu0.statFuBusy::SimdReduceAdd               0      0.00%     14.65% # attempts to use FU when none available (Count)
system.cpu0.statFuBusy::SimdReduceAlu               0      0.00%     14.65% # attempts to use FU when none available (Count)
system.cpu0.statFuBusy::SimdReduceCmp               0      0.00%     14.65% # attempts to use FU when none available (Count)
system.cpu0.statFuBusy::SimdFloatReduceAdd            0      0.00%     14.65% # attempts to use FU when none available (Count)
system.cpu0.statFuBusy::SimdFloatReduceCmp            0      0.00%     14.65% # attempts to use FU when none available (Count)
system.cpu0.statFuBusy::SimdAes                     0      0.00%     14.65% # attempts to use FU when none available (Count)
system.cpu0.statFuBusy::SimdAesMix                  0      0.00%     14.65% # attempts to use FU when none available (Count)
system.cpu0.statFuBusy::SimdSha1Hash                0      0.00%     14.65% # attempts to use FU when none available (Count)
system.cpu0.statFuBusy::SimdSha1Hash2               0      0.00%     14.65% # attempts to use FU when none available (Count)
system.cpu0.statFuBusy::SimdSha256Hash              0      0.00%     14.65% # attempts to use FU when none available (Count)
system.cpu0.statFuBusy::SimdSha256Hash2             0      0.00%     14.65% # attempts to use FU when none available (Count)
system.cpu0.statFuBusy::SimdShaSigma2               0      0.00%     14.65% # attempts to use FU when none available (Count)
system.cpu0.statFuBusy::SimdShaSigma3               0      0.00%     14.65% # attempts to use FU when none available (Count)
system.cpu0.statFuBusy::SimdPredAlu                 0      0.00%     14.65% # attempts to use FU when none available (Count)
system.cpu0.statFuBusy::MemRead                376636      9.17%     23.82% # attempts to use FU when none available (Count)
system.cpu0.statFuBusy::MemWrite               876006     21.34%     45.16% # attempts to use FU when none available (Count)
system.cpu0.statFuBusy::FloatMemRead          1938339     47.22%     92.38% # attempts to use FU when none available (Count)
system.cpu0.statFuBusy::FloatMemWrite          312751      7.62%    100.00% # attempts to use FU when none available (Count)
system.cpu0.statFuBusy::IprAccess                   0      0.00%    100.00% # attempts to use FU when none available (Count)
system.cpu0.statFuBusy::InstPrefetch                0      0.00%    100.00% # attempts to use FU when none available (Count)
system.cpu0.statIssuedInstType_0::No_OpClass      2765307      3.59%      3.59% # Number of instructions issued per FU type, per thread (Count)
system.cpu0.statIssuedInstType_0::IntAlu     32739129     42.50%     46.09% # Number of instructions issued per FU type, per thread (Count)
system.cpu0.statIssuedInstType_0::IntMult          300      0.00%     46.09% # Number of instructions issued per FU type, per thread (Count)
system.cpu0.statIssuedInstType_0::IntDiv         3047      0.00%     46.09% # Number of instructions issued per FU type, per thread (Count)
system.cpu0.statIssuedInstType_0::FloatAdd      3630803      4.71%     50.81% # Number of instructions issued per FU type, per thread (Count)
system.cpu0.statIssuedInstType_0::FloatCmp            0      0.00%     50.81% # Number of instructions issued per FU type, per thread (Count)
system.cpu0.statIssuedInstType_0::FloatCvt          514      0.00%     50.81% # Number of instructions issued per FU type, per thread (Count)
system.cpu0.statIssuedInstType_0::FloatMult            0      0.00%     50.81% # Number of instructions issued per FU type, per thread (Count)
system.cpu0.statIssuedInstType_0::FloatMultAcc            0      0.00%     50.81% # Number of instructions issued per FU type, per thread (Count)
system.cpu0.statIssuedInstType_0::FloatDiv            0      0.00%     50.81% # Number of instructions issued per FU type, per thread (Count)
system.cpu0.statIssuedInstType_0::FloatMisc            0      0.00%     50.81% # Number of instructions issued per FU type, per thread (Count)
system.cpu0.statIssuedInstType_0::FloatSqrt            0      0.00%     50.81% # Number of instructions issued per FU type, per thread (Count)
system.cpu0.statIssuedInstType_0::SimdAdd         2681      0.00%     50.81% # Number of instructions issued per FU type, per thread (Count)
system.cpu0.statIssuedInstType_0::SimdAddAcc            0      0.00%     50.81% # Number of instructions issued per FU type, per thread (Count)
system.cpu0.statIssuedInstType_0::SimdAlu        32307      0.04%     50.85% # Number of instructions issued per FU type, per thread (Count)
system.cpu0.statIssuedInstType_0::SimdCmp           68      0.00%     50.85% # Number of instructions issued per FU type, per thread (Count)
system.cpu0.statIssuedInstType_0::SimdCvt         6177      0.01%     50.86% # Number of instructions issued per FU type, per thread (Count)
system.cpu0.statIssuedInstType_0::SimdMisc         4169      0.01%     50.87% # Number of instructions issued per FU type, per thread (Count)
system.cpu0.statIssuedInstType_0::SimdMult            0      0.00%     50.87% # Number of instructions issued per FU type, per thread (Count)
system.cpu0.statIssuedInstType_0::SimdMultAcc            0      0.00%     50.87% # Number of instructions issued per FU type, per thread (Count)
system.cpu0.statIssuedInstType_0::SimdShift         1512      0.00%     50.87% # Number of instructions issued per FU type, per thread (Count)
system.cpu0.statIssuedInstType_0::SimdShiftAcc            0      0.00%     50.87% # Number of instructions issued per FU type, per thread (Count)
system.cpu0.statIssuedInstType_0::SimdDiv            0      0.00%     50.87% # Number of instructions issued per FU type, per thread (Count)
system.cpu0.statIssuedInstType_0::SimdSqrt            0      0.00%     50.87% # Number of instructions issued per FU type, per thread (Count)
system.cpu0.statIssuedInstType_0::SimdFloatAdd      7134068      9.26%     60.13% # Number of instructions issued per FU type, per thread (Count)
system.cpu0.statIssuedInstType_0::SimdFloatAlu            0      0.00%     60.13% # Number of instructions issued per FU type, per thread (Count)
system.cpu0.statIssuedInstType_0::SimdFloatCmp           26      0.00%     60.13% # Number of instructions issued per FU type, per thread (Count)
system.cpu0.statIssuedInstType_0::SimdFloatCvt      3017856      3.92%     64.05% # Number of instructions issued per FU type, per thread (Count)
system.cpu0.statIssuedInstType_0::SimdFloatDiv           17      0.00%     64.05% # Number of instructions issued per FU type, per thread (Count)
system.cpu0.statIssuedInstType_0::SimdFloatMisc            0      0.00%     64.05% # Number of instructions issued per FU type, per thread (Count)
system.cpu0.statIssuedInstType_0::SimdFloatMult      1006611      1.31%     65.35% # Number of instructions issued per FU type, per thread (Count)
system.cpu0.statIssuedInstType_0::SimdFloatMultAcc            0      0.00%     65.35% # Number of instructions issued per FU type, per thread (Count)
system.cpu0.statIssuedInstType_0::SimdFloatSqrt            0      0.00%     65.35% # Number of instructions issued per FU type, per thread (Count)
system.cpu0.statIssuedInstType_0::SimdReduceAdd            0      0.00%     65.35% # Number of instructions issued per FU type, per thread (Count)
system.cpu0.statIssuedInstType_0::SimdReduceAlu            0      0.00%     65.35% # Number of instructions issued per FU type, per thread (Count)
system.cpu0.statIssuedInstType_0::SimdReduceCmp            0      0.00%     65.35% # Number of instructions issued per FU type, per thread (Count)
system.cpu0.statIssuedInstType_0::SimdFloatReduceAdd            0      0.00%     65.35% # Number of instructions issued per FU type, per thread (Count)
system.cpu0.statIssuedInstType_0::SimdFloatReduceCmp            0      0.00%     65.35% # Number of instructions issued per FU type, per thread (Count)
system.cpu0.statIssuedInstType_0::SimdAes            0      0.00%     65.35% # Number of instructions issued per FU type, per thread (Count)
system.cpu0.statIssuedInstType_0::SimdAesMix            0      0.00%     65.35% # Number of instructions issued per FU type, per thread (Count)
system.cpu0.statIssuedInstType_0::SimdSha1Hash            0      0.00%     65.35% # Number of instructions issued per FU type, per thread (Count)
system.cpu0.statIssuedInstType_0::SimdSha1Hash2            0      0.00%     65.35% # Number of instructions issued per FU type, per thread (Count)
system.cpu0.statIssuedInstType_0::SimdSha256Hash            0      0.00%     65.35% # Number of instructions issued per FU type, per thread (Count)
system.cpu0.statIssuedInstType_0::SimdSha256Hash2            0      0.00%     65.35% # Number of instructions issued per FU type, per thread (Count)
system.cpu0.statIssuedInstType_0::SimdShaSigma2            0      0.00%     65.35% # Number of instructions issued per FU type, per thread (Count)
system.cpu0.statIssuedInstType_0::SimdShaSigma3            0      0.00%     65.35% # Number of instructions issued per FU type, per thread (Count)
system.cpu0.statIssuedInstType_0::SimdPredAlu            0      0.00%     65.35% # Number of instructions issued per FU type, per thread (Count)
system.cpu0.statIssuedInstType_0::MemRead      1558296      2.02%     67.38% # Number of instructions issued per FU type, per thread (Count)
system.cpu0.statIssuedInstType_0::MemWrite      3187218      4.14%     71.52% # Number of instructions issued per FU type, per thread (Count)
system.cpu0.statIssuedInstType_0::FloatMemRead     14312757     18.58%     90.10% # Number of instructions issued per FU type, per thread (Count)
system.cpu0.statIssuedInstType_0::FloatMemWrite      7629848      9.90%    100.00% # Number of instructions issued per FU type, per thread (Count)
system.cpu0.statIssuedInstType_0::IprAccess            0      0.00%    100.00% # Number of instructions issued per FU type, per thread (Count)
system.cpu0.statIssuedInstType_0::InstPrefetch            0      0.00%    100.00% # Number of instructions issued per FU type, per thread (Count)
system.cpu0.statIssuedInstType_0::total      77032711                       # Number of instructions issued per FU type, per thread (Count)
system.cpu0.issueRate                        0.408146                       # Inst issue rate ((Count/Cycle))
system.cpu0.fuBusy                            4105067                       # FU busy when requested (Count)
system.cpu0.fuBusyRate                       0.053290                       # FU busy rate (busy events/executed inst) ((Count/Count))
system.cpu0.intInstQueueReads               266094097                       # Number of integer instruction queue reads (Count)
system.cpu0.intInstQueueWrites               52500551                       # Number of integer instruction queue writes (Count)
system.cpu0.intInstQueueWakeupAccesses       35447216                       # Number of integer instruction queue wakeup accesses (Count)
system.cpu0.fpInstQueueReads                 80420114                       # Number of floating instruction queue reads (Count)
system.cpu0.fpInstQueueWrites                48992492                       # Number of floating instruction queue writes (Count)
system.cpu0.fpInstQueueWakeupAccesses        38636221                       # Number of floating instruction queue wakeup accesses (Count)
system.cpu0.vecInstQueueReads                       0                       # Number of vector instruction queue reads (Count)
system.cpu0.vecInstQueueWrites                      0                       # Number of vector instruction queue writes (Count)
system.cpu0.vecInstQueueWakeupAccesses              0                       # Number of vector instruction queue wakeup accesses (Count)
system.cpu0.intAluAccesses                   36744297                       # Number of integer alu accesses (Count)
system.cpu0.fpAluAccesses                    41628174                       # Number of floating point alu accesses (Count)
system.cpu0.vecAluAccesses                          0                       # Number of vector alu accesses (Count)
system.cpu0.numInsts                         77006454                       # Number of executed instructions (Count)
system.cpu0.numLoadInsts                     15865127                       # Number of load instructions executed (Count)
system.cpu0.numSquashedInsts                    26257                       # Number of squashed instructions skipped in execute (Count)
system.cpu0.numSwp                                  0                       # Number of swp insts executed (Count)
system.cpu0.numNop                                  0                       # Number of nop insts executed (Count)
system.cpu0.numRefs                          26681143                       # Number of memory reference insts executed (Count)
system.cpu0.numBranches                       5406582                       # Number of branches executed (Count)
system.cpu0.numStoreInsts                    10816016                       # Number of stores executed (Count)
system.cpu0.numRate                          0.408007                       # Inst execution rate ((Count/Cycle))
system.cpu0.timesIdled                           1747                       # Number of times that the entire CPU went into an idle state and unscheduled itself (Count)
system.cpu0.idleCycles                         396581                       # Total number of cycles that the CPU has spent unscheduled due to idling (Cycle)
system.cpu0.committedInsts                   28699180                       # Number of Instructions Simulated (Count)
system.cpu0.committedOps                     52522378                       # Number of Ops (including micro ops) Simulated (Count)
system.cpu0.cpi                              6.576430                       # CPI: Cycles Per Instruction ((Cycle/Count))
system.cpu0.totalCpi                         6.576430                       # CPI: Total CPI of All Threads ((Cycle/Count))
system.cpu0.ipc                              0.152058                       # IPC: Instructions Per Cycle ((Count/Cycle))
system.cpu0.totalIpc                         0.152058                       # IPC: Total IPC of All Threads ((Count/Cycle))
system.cpu0.intRegfileReads                  58276757                       # Number of integer regfile reads (Count)
system.cpu0.intRegfileWrites                 23112204                       # Number of integer regfile writes (Count)
system.cpu0.fpRegfileReads                   42201111                       # Number of floating regfile reads (Count)
system.cpu0.fpRegfileWrites                  27998871                       # Number of floating regfile writes (Count)
system.cpu0.ccRegfileReads                   32976856                       # number of cc regfile reads (Count)
system.cpu0.ccRegfileWrites                  19777814                       # number of cc regfile writes (Count)
system.cpu0.miscRegfileReads                 37514042                       # number of misc regfile reads (Count)
system.cpu0.miscRegfileWrites                     234                       # number of misc regfile writes (Count)
system.cpu0.MemDepUnit__0.insertedLoads      15730921                       # Number of loads inserted to the mem dependence unit. (Count)
system.cpu0.MemDepUnit__0.insertedStores     10822641                       # Number of stores inserted to the mem dependence unit. (Count)
system.cpu0.MemDepUnit__0.conflictingLoads       129399                       # Number of conflicting loads. (Count)
system.cpu0.MemDepUnit__0.conflictingStores       128582                       # Number of conflicting stores. (Count)
system.cpu0.MemDepUnit__1.insertedLoads             0                       # Number of loads inserted to the mem dependence unit. (Count)
system.cpu0.MemDepUnit__1.insertedStores            0                       # Number of stores inserted to the mem dependence unit. (Count)
system.cpu0.MemDepUnit__1.conflictingLoads            0                       # Number of conflicting loads. (Count)
system.cpu0.MemDepUnit__1.conflictingStores            0                       # Number of conflicting stores. (Count)
system.cpu0.MemDepUnit__2.insertedLoads             0                       # Number of loads inserted to the mem dependence unit. (Count)
system.cpu0.MemDepUnit__2.insertedStores            0                       # Number of stores inserted to the mem dependence unit. (Count)
system.cpu0.MemDepUnit__2.conflictingLoads            0                       # Number of conflicting loads. (Count)
system.cpu0.MemDepUnit__2.conflictingStores            0                       # Number of conflicting stores. (Count)
system.cpu0.MemDepUnit__3.insertedLoads             0                       # Number of loads inserted to the mem dependence unit. (Count)
system.cpu0.MemDepUnit__3.insertedStores            0                       # Number of stores inserted to the mem dependence unit. (Count)
system.cpu0.MemDepUnit__3.conflictingLoads            0                       # Number of conflicting loads. (Count)
system.cpu0.MemDepUnit__3.conflictingStores            0                       # Number of conflicting stores. (Count)
system.cpu0.branchPred.lookups                5833269                       # Number of BP lookups (Count)
system.cpu0.branchPred.condPredicted          5781600                       # Number of conditional branches predicted (Count)
system.cpu0.branchPred.condIncorrect             8953                       # Number of conditional branches incorrect (Count)
system.cpu0.branchPred.BTBLookups             2704789                       # Number of BTB lookups (Count)
system.cpu0.branchPred.BTBHits                2701006                       # Number of BTB hits (Count)
system.cpu0.branchPred.BTBHitRatio           0.998601                       # BTB Hit Ratio (Ratio)
system.cpu0.branchPred.RASUsed                  19419                       # Number of times the RAS was used to get a target. (Count)
system.cpu0.branchPred.RASIncorrect                 9                       # Number of incorrect RAS predictions. (Count)
system.cpu0.branchPred.indirectLookups           9541                       # Number of indirect predictor lookups. (Count)
system.cpu0.branchPred.indirectHits              5659                       # Number of indirect target hits. (Count)
system.cpu0.branchPred.indirectMisses            3882                       # Number of indirect misses. (Count)
system.cpu0.branchPred.indirectMispredicted          816                       # Number of mispredicted indirect branches. (Count)
system.cpu0.commit.commitSquashedInsts       21633724                       # The number of squashed insts skipped by commit (Count)
system.cpu0.commit.commitNonSpecStalls            904                       # The number of times commit has been forced to stall to communicate backwards (Count)
system.cpu0.commit.branchMispredicts             8852                       # The number of times a branch was mispredicted (Count)
system.cpu0.commit.numCommittedDist::samples    185455239                       # Number of insts commited each cycle (Count)
system.cpu0.commit.numCommittedDist::mean     0.283208                       # Number of insts commited each cycle (Count)
system.cpu0.commit.numCommittedDist::stdev     1.364766                       # Number of insts commited each cycle (Count)
system.cpu0.commit.numCommittedDist::underflows            0      0.00%      0.00% # Number of insts commited each cycle (Count)
system.cpu0.commit.numCommittedDist::0      175089271     94.41%     94.41% # Number of insts commited each cycle (Count)
system.cpu0.commit.numCommittedDist::1        2276145      1.23%     95.64% # Number of insts commited each cycle (Count)
system.cpu0.commit.numCommittedDist::2         890094      0.48%     96.12% # Number of insts commited each cycle (Count)
system.cpu0.commit.numCommittedDist::3         827480      0.45%     96.56% # Number of insts commited each cycle (Count)
system.cpu0.commit.numCommittedDist::4        1110107      0.60%     97.16% # Number of insts commited each cycle (Count)
system.cpu0.commit.numCommittedDist::5         124345      0.07%     97.23% # Number of insts commited each cycle (Count)
system.cpu0.commit.numCommittedDist::6          20900      0.01%     97.24% # Number of insts commited each cycle (Count)
system.cpu0.commit.numCommittedDist::7         139124      0.08%     97.32% # Number of insts commited each cycle (Count)
system.cpu0.commit.numCommittedDist::8        4977773      2.68%    100.00% # Number of insts commited each cycle (Count)
system.cpu0.commit.numCommittedDist::overflows            0      0.00%    100.00% # Number of insts commited each cycle (Count)
system.cpu0.commit.numCommittedDist::min_value            0                       # Number of insts commited each cycle (Count)
system.cpu0.commit.numCommittedDist::max_value            8                       # Number of insts commited each cycle (Count)
system.cpu0.commit.numCommittedDist::total    185455239                       # Number of insts commited each cycle (Count)
system.cpu0.commit.instsCommitted            28699180                       # Number of instructions committed (Count)
system.cpu0.commit.opsCommitted              52522378                       # Number of ops (including micro ops) committed (Count)
system.cpu0.commit.memRefs                   12187831                       # Number of memory references committed (Count)
system.cpu0.commit.loads                      9387651                       # Number of loads committed (Count)
system.cpu0.commit.amos                             0                       # Number of atomic instructions committed (Count)
system.cpu0.commit.membars                        444                       # Number of memory barriers committed (Count)
system.cpu0.commit.branches                   4741876                       # Number of branches committed (Count)
system.cpu0.commit.vectorInstructions               0                       # Number of committed Vector instructions. (Count)
system.cpu0.commit.floating                  28319534                       # Number of committed floating point instructions. (Count)
system.cpu0.commit.integer                   35703086                       # Number of committed integer instructions. (Count)
system.cpu0.commit.functionCalls                 8169                       # Number of function calls committed. (Count)
system.cpu0.commit.committedInstType_0::No_OpClass         6714      0.01%      0.01% # Class of committed instruction (Count)
system.cpu0.commit.committedInstType_0::IntAlu     25534248     48.62%     48.63% # Class of committed instruction (Count)
system.cpu0.commit.committedInstType_0::IntMult          275      0.00%     48.63% # Class of committed instruction (Count)
system.cpu0.commit.committedInstType_0::IntDiv         2783      0.01%     48.63% # Class of committed instruction (Count)
system.cpu0.commit.committedInstType_0::FloatAdd      3627918      6.91%     55.54% # Class of committed instruction (Count)
system.cpu0.commit.committedInstType_0::FloatCmp            0      0.00%     55.54% # Class of committed instruction (Count)
system.cpu0.commit.committedInstType_0::FloatCvt          416      0.00%     55.54% # Class of committed instruction (Count)
system.cpu0.commit.committedInstType_0::FloatMult            0      0.00%     55.54% # Class of committed instruction (Count)
system.cpu0.commit.committedInstType_0::FloatMultAcc            0      0.00%     55.54% # Class of committed instruction (Count)
system.cpu0.commit.committedInstType_0::FloatDiv            0      0.00%     55.54% # Class of committed instruction (Count)
system.cpu0.commit.committedInstType_0::FloatMisc            0      0.00%     55.54% # Class of committed instruction (Count)
system.cpu0.commit.committedInstType_0::FloatSqrt            0      0.00%     55.54% # Class of committed instruction (Count)
system.cpu0.commit.committedInstType_0::SimdAdd         2098      0.00%     55.55% # Class of committed instruction (Count)
system.cpu0.commit.committedInstType_0::SimdAddAcc            0      0.00%     55.55% # Class of committed instruction (Count)
system.cpu0.commit.committedInstType_0::SimdAlu        12608      0.02%     55.57% # Class of committed instruction (Count)
system.cpu0.commit.committedInstType_0::SimdCmp           66      0.00%     55.57% # Class of committed instruction (Count)
system.cpu0.commit.committedInstType_0::SimdCvt         4504      0.01%     55.58% # Class of committed instruction (Count)
system.cpu0.commit.committedInstType_0::SimdMisc         3511      0.01%     55.59% # Class of committed instruction (Count)
system.cpu0.commit.committedInstType_0::SimdMult            0      0.00%     55.59% # Class of committed instruction (Count)
system.cpu0.commit.committedInstType_0::SimdMultAcc            0      0.00%     55.59% # Class of committed instruction (Count)
system.cpu0.commit.committedInstType_0::SimdShift          727      0.00%     55.59% # Class of committed instruction (Count)
system.cpu0.commit.committedInstType_0::SimdShiftAcc            0      0.00%     55.59% # Class of committed instruction (Count)
system.cpu0.commit.committedInstType_0::SimdDiv            0      0.00%     55.59% # Class of committed instruction (Count)
system.cpu0.commit.committedInstType_0::SimdSqrt            0      0.00%     55.59% # Class of committed instruction (Count)
system.cpu0.commit.committedInstType_0::SimdFloatAdd      7129532     13.57%     69.16% # Class of committed instruction (Count)
system.cpu0.commit.committedInstType_0::SimdFloatAlu            0      0.00%     69.16% # Class of committed instruction (Count)
system.cpu0.commit.committedInstType_0::SimdFloatCmp           24      0.00%     69.16% # Class of committed instruction (Count)
system.cpu0.commit.committedInstType_0::SimdFloatCvt      3006811      5.72%     74.89% # Class of committed instruction (Count)
system.cpu0.commit.committedInstType_0::SimdFloatDiv           15      0.00%     74.89% # Class of committed instruction (Count)
system.cpu0.commit.committedInstType_0::SimdFloatMisc            0      0.00%     74.89% # Class of committed instruction (Count)
system.cpu0.commit.committedInstType_0::SimdFloatMult      1002297      1.91%     76.79% # Class of committed instruction (Count)
system.cpu0.commit.committedInstType_0::SimdFloatMultAcc            0      0.00%     76.79% # Class of committed instruction (Count)
system.cpu0.commit.committedInstType_0::SimdFloatSqrt            0      0.00%     76.79% # Class of committed instruction (Count)
system.cpu0.commit.committedInstType_0::SimdReduceAdd            0      0.00%     76.79% # Class of committed instruction (Count)
system.cpu0.commit.committedInstType_0::SimdReduceAlu            0      0.00%     76.79% # Class of committed instruction (Count)
system.cpu0.commit.committedInstType_0::SimdReduceCmp            0      0.00%     76.79% # Class of committed instruction (Count)
system.cpu0.commit.committedInstType_0::SimdFloatReduceAdd            0      0.00%     76.79% # Class of committed instruction (Count)
system.cpu0.commit.committedInstType_0::SimdFloatReduceCmp            0      0.00%     76.79% # Class of committed instruction (Count)
system.cpu0.commit.committedInstType_0::SimdAes            0      0.00%     76.79% # Class of committed instruction (Count)
system.cpu0.commit.committedInstType_0::SimdAesMix            0      0.00%     76.79% # Class of committed instruction (Count)
system.cpu0.commit.committedInstType_0::SimdSha1Hash            0      0.00%     76.79% # Class of committed instruction (Count)
system.cpu0.commit.committedInstType_0::SimdSha1Hash2            0      0.00%     76.79% # Class of committed instruction (Count)
system.cpu0.commit.committedInstType_0::SimdSha256Hash            0      0.00%     76.79% # Class of committed instruction (Count)
system.cpu0.commit.committedInstType_0::SimdSha256Hash2            0      0.00%     76.79% # Class of committed instruction (Count)
system.cpu0.commit.committedInstType_0::SimdShaSigma2            0      0.00%     76.79% # Class of committed instruction (Count)
system.cpu0.commit.committedInstType_0::SimdShaSigma3            0      0.00%     76.79% # Class of committed instruction (Count)
system.cpu0.commit.committedInstType_0::SimdPredAlu            0      0.00%     76.79% # Class of committed instruction (Count)
system.cpu0.commit.committedInstType_0::MemRead       244153      0.46%     77.26% # Class of committed instruction (Count)
system.cpu0.commit.committedInstType_0::MemWrite       420144      0.80%     78.06% # Class of committed instruction (Count)
system.cpu0.commit.committedInstType_0::FloatMemRead      9143498     17.41%     95.47% # Class of committed instruction (Count)
system.cpu0.commit.committedInstType_0::FloatMemWrite      2380036      4.53%    100.00% # Class of committed instruction (Count)
system.cpu0.commit.committedInstType_0::IprAccess            0      0.00%    100.00% # Class of committed instruction (Count)
system.cpu0.commit.committedInstType_0::InstPrefetch            0      0.00%    100.00% # Class of committed instruction (Count)
system.cpu0.commit.committedInstType_0::total     52522378                       # Class of committed instruction (Count)
system.cpu0.commit.commitEligibleSamples      4977773                       # number cycles where commit BW limit reached (Cycle)
system.cpu0.dcache.demandHits::cpu0.data     12217267                       # number of demand (read+write) hits (Count)
system.cpu0.dcache.demandHits::total         12217267                       # number of demand (read+write) hits (Count)
system.cpu0.dcache.overallHits::cpu0.data     13523120                       # number of overall hits (Count)
system.cpu0.dcache.overallHits::total        13523120                       # number of overall hits (Count)
system.cpu0.dcache.demandMisses::cpu0.data      4652072                       # number of demand (read+write) misses (Count)
system.cpu0.dcache.demandMisses::total        4652072                       # number of demand (read+write) misses (Count)
system.cpu0.dcache.overallMisses::cpu0.data      4721043                       # number of overall misses (Count)
system.cpu0.dcache.overallMisses::total       4721043                       # number of overall misses (Count)
system.cpu0.dcache.demandMissLatency::cpu0.data 277459602227                       # number of demand (read+write) miss ticks (Tick)
system.cpu0.dcache.demandMissLatency::total 277459602227                       # number of demand (read+write) miss ticks (Tick)
system.cpu0.dcache.overallMissLatency::cpu0.data 277459602227                       # number of overall miss ticks (Tick)
system.cpu0.dcache.overallMissLatency::total 277459602227                       # number of overall miss ticks (Tick)
system.cpu0.dcache.demandAccesses::cpu0.data     16869339                       # number of demand (read+write) accesses (Count)
system.cpu0.dcache.demandAccesses::total     16869339                       # number of demand (read+write) accesses (Count)
system.cpu0.dcache.overallAccesses::cpu0.data     18244163                       # number of overall (read+write) accesses (Count)
system.cpu0.dcache.overallAccesses::total     18244163                       # number of overall (read+write) accesses (Count)
system.cpu0.dcache.demandMissRate::cpu0.data     0.275771                       # miss rate for demand accesses (Ratio)
system.cpu0.dcache.demandMissRate::total     0.275771                       # miss rate for demand accesses (Ratio)
system.cpu0.dcache.overallMissRate::cpu0.data     0.258770                       # miss rate for overall accesses (Ratio)
system.cpu0.dcache.overallMissRate::total     0.258770                       # miss rate for overall accesses (Ratio)
system.cpu0.dcache.demandAvgMissLatency::cpu0.data 59642.155630                       # average overall miss latency in ticks ((Tick/Count))
system.cpu0.dcache.demandAvgMissLatency::total 59642.155630                       # average overall miss latency in ticks ((Tick/Count))
system.cpu0.dcache.overallAvgMissLatency::cpu0.data 58770.827173                       # average overall miss latency ((Tick/Count))
system.cpu0.dcache.overallAvgMissLatency::total 58770.827173                       # average overall miss latency ((Tick/Count))
system.cpu0.dcache.blockedCycles::no_mshrs     21460130                       # number of cycles access was blocked (Cycle)
system.cpu0.dcache.blockedCycles::no_targets         2974                       # number of cycles access was blocked (Cycle)
system.cpu0.dcache.blockedCauses::no_mshrs       240775                       # number of times access was blocked (Count)
system.cpu0.dcache.blockedCauses::no_targets           21                       # number of times access was blocked (Count)
system.cpu0.dcache.avgBlocked::no_mshrs     89.129395                       # average number of cycles each access was blocked ((Cycle/Count))
system.cpu0.dcache.avgBlocked::no_targets   141.619048                       # average number of cycles each access was blocked ((Cycle/Count))
system.cpu0.dcache.writebacks::writebacks       315140                       # number of writebacks (Count)
system.cpu0.dcache.writebacks::total           315140                       # number of writebacks (Count)
system.cpu0.dcache.demandMshrHits::cpu0.data      3645637                       # number of demand (read+write) MSHR hits (Count)
system.cpu0.dcache.demandMshrHits::total      3645637                       # number of demand (read+write) MSHR hits (Count)
system.cpu0.dcache.overallMshrHits::cpu0.data      3645637                       # number of overall MSHR hits (Count)
system.cpu0.dcache.overallMshrHits::total      3645637                       # number of overall MSHR hits (Count)
system.cpu0.dcache.demandMshrMisses::cpu0.data      1006435                       # number of demand (read+write) MSHR misses (Count)
system.cpu0.dcache.demandMshrMisses::total      1006435                       # number of demand (read+write) MSHR misses (Count)
system.cpu0.dcache.overallMshrMisses::cpu0.data      1068933                       # number of overall MSHR misses (Count)
system.cpu0.dcache.overallMshrMisses::total      1068933                       # number of overall MSHR misses (Count)
system.cpu0.dcache.demandMshrMissLatency::cpu0.data 105606176978                       # number of demand (read+write) MSHR miss ticks (Tick)
system.cpu0.dcache.demandMshrMissLatency::total 105606176978                       # number of demand (read+write) MSHR miss ticks (Tick)
system.cpu0.dcache.overallMshrMissLatency::cpu0.data 111029333228                       # number of overall MSHR miss ticks (Tick)
system.cpu0.dcache.overallMshrMissLatency::total 111029333228                       # number of overall MSHR miss ticks (Tick)
system.cpu0.dcache.demandMshrMissRate::cpu0.data     0.059661                       # mshr miss ratio for demand accesses (Ratio)
system.cpu0.dcache.demandMshrMissRate::total     0.059661                       # mshr miss ratio for demand accesses (Ratio)
system.cpu0.dcache.overallMshrMissRate::cpu0.data     0.058590                       # mshr miss ratio for overall accesses (Ratio)
system.cpu0.dcache.overallMshrMissRate::total     0.058590                       # mshr miss ratio for overall accesses (Ratio)
system.cpu0.dcache.demandAvgMshrMissLatency::cpu0.data 104930.946338                       # average overall mshr miss latency ((Tick/Count))
system.cpu0.dcache.demandAvgMshrMissLatency::total 104930.946338                       # average overall mshr miss latency ((Tick/Count))
system.cpu0.dcache.overallAvgMshrMissLatency::cpu0.data 103869.310076                       # average overall mshr miss latency ((Tick/Count))
system.cpu0.dcache.overallAvgMshrMissLatency::total 103869.310076                       # average overall mshr miss latency ((Tick/Count))
system.cpu0.dcache.replacements               1067615                       # number of replacements (Count)
system.cpu0.dcache.LockedRMWReadReq.hits::cpu0.data          179                       # number of LockedRMWReadReq hits (Count)
system.cpu0.dcache.LockedRMWReadReq.hits::total          179                       # number of LockedRMWReadReq hits (Count)
system.cpu0.dcache.LockedRMWReadReq.misses::cpu0.data           43                       # number of LockedRMWReadReq misses (Count)
system.cpu0.dcache.LockedRMWReadReq.misses::total           43                       # number of LockedRMWReadReq misses (Count)
system.cpu0.dcache.LockedRMWReadReq.missLatency::cpu0.data       420750                       # number of LockedRMWReadReq miss ticks (Tick)
system.cpu0.dcache.LockedRMWReadReq.missLatency::total       420750                       # number of LockedRMWReadReq miss ticks (Tick)
system.cpu0.dcache.LockedRMWReadReq.accesses::cpu0.data          222                       # number of LockedRMWReadReq accesses(hits+misses) (Count)
system.cpu0.dcache.LockedRMWReadReq.accesses::total          222                       # number of LockedRMWReadReq accesses(hits+misses) (Count)
system.cpu0.dcache.LockedRMWReadReq.missRate::cpu0.data     0.193694                       # miss rate for LockedRMWReadReq accesses (Ratio)
system.cpu0.dcache.LockedRMWReadReq.missRate::total     0.193694                       # miss rate for LockedRMWReadReq accesses (Ratio)
system.cpu0.dcache.LockedRMWReadReq.avgMissLatency::cpu0.data  9784.883721                       # average LockedRMWReadReq miss latency ((Tick/Count))
system.cpu0.dcache.LockedRMWReadReq.avgMissLatency::total  9784.883721                       # average LockedRMWReadReq miss latency ((Tick/Count))
system.cpu0.dcache.LockedRMWReadReq.mshrMisses::cpu0.data           43                       # number of LockedRMWReadReq MSHR misses (Count)
system.cpu0.dcache.LockedRMWReadReq.mshrMisses::total           43                       # number of LockedRMWReadReq MSHR misses (Count)
system.cpu0.dcache.LockedRMWReadReq.mshrMissLatency::cpu0.data      1298750                       # number of LockedRMWReadReq MSHR miss ticks (Tick)
system.cpu0.dcache.LockedRMWReadReq.mshrMissLatency::total      1298750                       # number of LockedRMWReadReq MSHR miss ticks (Tick)
system.cpu0.dcache.LockedRMWReadReq.mshrMissRate::cpu0.data     0.193694                       # mshr miss rate for LockedRMWReadReq accesses (Ratio)
system.cpu0.dcache.LockedRMWReadReq.mshrMissRate::total     0.193694                       # mshr miss rate for LockedRMWReadReq accesses (Ratio)
system.cpu0.dcache.LockedRMWReadReq.avgMshrMissLatency::cpu0.data 30203.488372                       # average LockedRMWReadReq mshr miss latency ((Tick/Count))
system.cpu0.dcache.LockedRMWReadReq.avgMshrMissLatency::total 30203.488372                       # average LockedRMWReadReq mshr miss latency ((Tick/Count))
system.cpu0.dcache.LockedRMWWriteReq.hits::cpu0.data          222                       # number of LockedRMWWriteReq hits (Count)
system.cpu0.dcache.LockedRMWWriteReq.hits::total          222                       # number of LockedRMWWriteReq hits (Count)
system.cpu0.dcache.LockedRMWWriteReq.accesses::cpu0.data          222                       # number of LockedRMWWriteReq accesses(hits+misses) (Count)
system.cpu0.dcache.LockedRMWWriteReq.accesses::total          222                       # number of LockedRMWWriteReq accesses(hits+misses) (Count)
system.cpu0.dcache.ReadReq.hits::cpu0.data      9966234                       # number of ReadReq hits (Count)
system.cpu0.dcache.ReadReq.hits::total        9966234                       # number of ReadReq hits (Count)
system.cpu0.dcache.ReadReq.misses::cpu0.data      4353112                       # number of ReadReq misses (Count)
system.cpu0.dcache.ReadReq.misses::total      4353112                       # number of ReadReq misses (Count)
system.cpu0.dcache.ReadReq.missLatency::cpu0.data 247631170500                       # number of ReadReq miss ticks (Tick)
system.cpu0.dcache.ReadReq.missLatency::total 247631170500                       # number of ReadReq miss ticks (Tick)
system.cpu0.dcache.ReadReq.accesses::cpu0.data     14319346                       # number of ReadReq accesses(hits+misses) (Count)
system.cpu0.dcache.ReadReq.accesses::total     14319346                       # number of ReadReq accesses(hits+misses) (Count)
system.cpu0.dcache.ReadReq.missRate::cpu0.data     0.304002                       # miss rate for ReadReq accesses (Ratio)
system.cpu0.dcache.ReadReq.missRate::total     0.304002                       # miss rate for ReadReq accesses (Ratio)
system.cpu0.dcache.ReadReq.avgMissLatency::cpu0.data 56886.009480                       # average ReadReq miss latency ((Tick/Count))
system.cpu0.dcache.ReadReq.avgMissLatency::total 56886.009480                       # average ReadReq miss latency ((Tick/Count))
system.cpu0.dcache.ReadReq.mshrHits::cpu0.data      3645629                       # number of ReadReq MSHR hits (Count)
system.cpu0.dcache.ReadReq.mshrHits::total      3645629                       # number of ReadReq MSHR hits (Count)
system.cpu0.dcache.ReadReq.mshrMisses::cpu0.data       707483                       # number of ReadReq MSHR misses (Count)
system.cpu0.dcache.ReadReq.mshrMisses::total       707483                       # number of ReadReq MSHR misses (Count)
system.cpu0.dcache.ReadReq.mshrMissLatency::cpu0.data  75927626750                       # number of ReadReq MSHR miss ticks (Tick)
system.cpu0.dcache.ReadReq.mshrMissLatency::total  75927626750                       # number of ReadReq MSHR miss ticks (Tick)
system.cpu0.dcache.ReadReq.mshrMissRate::cpu0.data     0.049407                       # mshr miss rate for ReadReq accesses (Ratio)
system.cpu0.dcache.ReadReq.mshrMissRate::total     0.049407                       # mshr miss rate for ReadReq accesses (Ratio)
system.cpu0.dcache.ReadReq.avgMshrMissLatency::cpu0.data 107320.779086                       # average ReadReq mshr miss latency ((Tick/Count))
system.cpu0.dcache.ReadReq.avgMshrMissLatency::total 107320.779086                       # average ReadReq mshr miss latency ((Tick/Count))
system.cpu0.dcache.SoftPFReq.hits::cpu0.data      1305853                       # number of SoftPFReq hits (Count)
system.cpu0.dcache.SoftPFReq.hits::total      1305853                       # number of SoftPFReq hits (Count)
system.cpu0.dcache.SoftPFReq.misses::cpu0.data        68971                       # number of SoftPFReq misses (Count)
system.cpu0.dcache.SoftPFReq.misses::total        68971                       # number of SoftPFReq misses (Count)
system.cpu0.dcache.SoftPFReq.accesses::cpu0.data      1374824                       # number of SoftPFReq accesses(hits+misses) (Count)
system.cpu0.dcache.SoftPFReq.accesses::total      1374824                       # number of SoftPFReq accesses(hits+misses) (Count)
system.cpu0.dcache.SoftPFReq.missRate::cpu0.data     0.050167                       # miss rate for SoftPFReq accesses (Ratio)
system.cpu0.dcache.SoftPFReq.missRate::total     0.050167                       # miss rate for SoftPFReq accesses (Ratio)
system.cpu0.dcache.SoftPFReq.mshrMisses::cpu0.data        62498                       # number of SoftPFReq MSHR misses (Count)
system.cpu0.dcache.SoftPFReq.mshrMisses::total        62498                       # number of SoftPFReq MSHR misses (Count)
system.cpu0.dcache.SoftPFReq.mshrMissLatency::cpu0.data   5423156250                       # number of SoftPFReq MSHR miss ticks (Tick)
system.cpu0.dcache.SoftPFReq.mshrMissLatency::total   5423156250                       # number of SoftPFReq MSHR miss ticks (Tick)
system.cpu0.dcache.SoftPFReq.mshrMissRate::cpu0.data     0.045459                       # mshr miss rate for SoftPFReq accesses (Ratio)
system.cpu0.dcache.SoftPFReq.mshrMissRate::total     0.045459                       # mshr miss rate for SoftPFReq accesses (Ratio)
system.cpu0.dcache.SoftPFReq.avgMshrMissLatency::cpu0.data 86773.276745                       # average SoftPFReq mshr miss latency ((Tick/Count))
system.cpu0.dcache.SoftPFReq.avgMshrMissLatency::total 86773.276745                       # average SoftPFReq mshr miss latency ((Tick/Count))
system.cpu0.dcache.WriteReq.hits::cpu0.data      2251033                       # number of WriteReq hits (Count)
system.cpu0.dcache.WriteReq.hits::total       2251033                       # number of WriteReq hits (Count)
system.cpu0.dcache.WriteReq.misses::cpu0.data       298960                       # number of WriteReq misses (Count)
system.cpu0.dcache.WriteReq.misses::total       298960                       # number of WriteReq misses (Count)
system.cpu0.dcache.WriteReq.missLatency::cpu0.data  29828431727                       # number of WriteReq miss ticks (Tick)
system.cpu0.dcache.WriteReq.missLatency::total  29828431727                       # number of WriteReq miss ticks (Tick)
system.cpu0.dcache.WriteReq.accesses::cpu0.data      2549993                       # number of WriteReq accesses(hits+misses) (Count)
system.cpu0.dcache.WriteReq.accesses::total      2549993                       # number of WriteReq accesses(hits+misses) (Count)
system.cpu0.dcache.WriteReq.missRate::cpu0.data     0.117240                       # miss rate for WriteReq accesses (Ratio)
system.cpu0.dcache.WriteReq.missRate::total     0.117240                       # miss rate for WriteReq accesses (Ratio)
system.cpu0.dcache.WriteReq.avgMissLatency::cpu0.data 99773.988918                       # average WriteReq miss latency ((Tick/Count))
system.cpu0.dcache.WriteReq.avgMissLatency::total 99773.988918                       # average WriteReq miss latency ((Tick/Count))
system.cpu0.dcache.WriteReq.mshrHits::cpu0.data            8                       # number of WriteReq MSHR hits (Count)
system.cpu0.dcache.WriteReq.mshrHits::total            8                       # number of WriteReq MSHR hits (Count)
system.cpu0.dcache.WriteReq.mshrMisses::cpu0.data       298952                       # number of WriteReq MSHR misses (Count)
system.cpu0.dcache.WriteReq.mshrMisses::total       298952                       # number of WriteReq MSHR misses (Count)
system.cpu0.dcache.WriteReq.mshrMissLatency::cpu0.data  29678550228                       # number of WriteReq MSHR miss ticks (Tick)
system.cpu0.dcache.WriteReq.mshrMissLatency::total  29678550228                       # number of WriteReq MSHR miss ticks (Tick)
system.cpu0.dcache.WriteReq.mshrMissRate::cpu0.data     0.117236                       # mshr miss rate for WriteReq accesses (Ratio)
system.cpu0.dcache.WriteReq.mshrMissRate::total     0.117236                       # mshr miss rate for WriteReq accesses (Ratio)
system.cpu0.dcache.WriteReq.avgMshrMissLatency::cpu0.data 99275.302483                       # average WriteReq mshr miss latency ((Tick/Count))
system.cpu0.dcache.WriteReq.avgMshrMissLatency::total 99275.302483                       # average WriteReq mshr miss latency ((Tick/Count))
system.cpu0.dcache.power_state.pwrStateResidencyTicks::UNDEFINED  47184535750                       # Cumulative time (in ticks) in various power states (Tick)
system.cpu0.dcache.tags.tagsInUse         1022.651159                       # Average ticks per tags in use ((Tick/Count))
system.cpu0.dcache.tags.totalRefs            14592500                       # Total number of references to valid blocks. (Count)
system.cpu0.dcache.tags.sampledRefs           1068880                       # Sample count of references to valid blocks. (Count)
system.cpu0.dcache.tags.avgRefs             13.652141                       # Average number of references to valid blocks. ((Count/Count))
system.cpu0.dcache.tags.warmupTick             168250                       # The tick when the warmup percentage was hit. (Tick)
system.cpu0.dcache.tags.occupancies::cpu0.data  1022.651159                       # Average occupied blocks per tick, per requestor ((Count/Tick))
system.cpu0.dcache.tags.avgOccs::cpu0.data     0.998683                       # Average percentage of cache occupancy ((Ratio/Tick))
system.cpu0.dcache.tags.avgOccs::total       0.998683                       # Average percentage of cache occupancy ((Ratio/Tick))
system.cpu0.dcache.tags.occupanciesTaskId::1024         1024                       # Occupied blocks per task id (Count)
system.cpu0.dcache.tags.ageTaskId_1024::0          133                       # Occupied blocks per task id, per block age (Count)
system.cpu0.dcache.tags.ageTaskId_1024::1          890                       # Occupied blocks per task id, per block age (Count)
system.cpu0.dcache.tags.ageTaskId_1024::4            1                       # Occupied blocks per task id, per block age (Count)
system.cpu0.dcache.tags.ratioOccsTaskId::1024            1                       # Ratio of occupied blocks and all blocks, per task id (Ratio)
system.cpu0.dcache.tags.tagAccesses          37558094                       # Number of tag accesses (Count)
system.cpu0.dcache.tags.dataAccesses         37558094                       # Number of data accesses (Count)
system.cpu0.dcache.tags.power_state.pwrStateResidencyTicks::UNDEFINED  47184535750                       # Cumulative time (in ticks) in various power states (Tick)
system.cpu0.decode.idleCycles                 2833689                       # Number of cycles decode is idle (Cycle)
system.cpu0.decode.blockedCycles            174641970                       # Number of cycles decode is blocked (Cycle)
system.cpu0.decode.runCycles                  7991286                       # Number of cycles decode is running (Cycle)
system.cpu0.decode.unblockCycles              2612911                       # Number of cycles decode is unblocking (Cycle)
system.cpu0.decode.squashCycles                261707                       # Number of cycles decode is squashing (Cycle)
system.cpu0.decode.branchResolved             2447807                       # Number of times decode resolved a branch (Count)
system.cpu0.decode.branchMispred                 1356                       # Number of times decode detected a branch misprediction (Count)
system.cpu0.decode.decodedInsts              79741111                       # Number of instructions handled by decode (Count)
system.cpu0.decode.squashedInsts                 6512                       # Number of squashed instructions handled by decode (Count)
system.cpu0.dtb_walker_cache.blockedCycles::no_mshrs            0                       # number of cycles access was blocked (Cycle)
system.cpu0.dtb_walker_cache.blockedCycles::no_targets            0                       # number of cycles access was blocked (Cycle)
system.cpu0.dtb_walker_cache.blockedCauses::no_mshrs            0                       # number of times access was blocked (Count)
system.cpu0.dtb_walker_cache.blockedCauses::no_targets            0                       # number of times access was blocked (Count)
system.cpu0.dtb_walker_cache.avgBlocked::no_mshrs          nan                       # average number of cycles each access was blocked ((Cycle/Count))
system.cpu0.dtb_walker_cache.avgBlocked::no_targets          nan                       # average number of cycles each access was blocked ((Cycle/Count))
system.cpu0.dtb_walker_cache.replacements            0                       # number of replacements (Count)
system.cpu0.dtb_walker_cache.power_state.pwrStateResidencyTicks::UNDEFINED  47184535750                       # Cumulative time (in ticks) in various power states (Tick)
system.cpu0.dtb_walker_cache.tags.tagsInUse            0                       # Average ticks per tags in use ((Tick/Count))
system.cpu0.dtb_walker_cache.tags.totalRefs            0                       # Total number of references to valid blocks. (Count)
system.cpu0.dtb_walker_cache.tags.sampledRefs            0                       # Sample count of references to valid blocks. (Count)
system.cpu0.dtb_walker_cache.tags.avgRefs          nan                       # Average number of references to valid blocks. ((Count/Count))
system.cpu0.dtb_walker_cache.tags.warmupTick            0                       # The tick when the warmup percentage was hit. (Tick)
system.cpu0.dtb_walker_cache.tags.tagAccesses            0                       # Number of tag accesses (Count)
system.cpu0.dtb_walker_cache.tags.dataAccesses            0                       # Number of data accesses (Count)
system.cpu0.dtb_walker_cache.tags.power_state.pwrStateResidencyTicks::UNDEFINED  47184535750                       # Cumulative time (in ticks) in various power states (Tick)
system.cpu0.fetch.icacheStallCycles           5515574                       # Number of cycles fetch is stalled on an Icache miss (Cycle)
system.cpu0.fetch.insts                      43735518                       # Number of instructions fetch has processed (Count)
system.cpu0.fetch.branches                    5833269                       # Number of branches that fetch encountered (Count)
system.cpu0.fetch.predictedBranches           2726084                       # Number of branches that fetch has predicted taken (Count)
system.cpu0.fetch.cycles                    182552767                       # Number of cycles fetch has run and was not squashing or blocked (Cycle)
system.cpu0.fetch.squashCycles                 526090                       # Number of cycles fetch has spent squashing (Cycle)
system.cpu0.fetch.miscStallCycles                1301                       # Number of cycles fetch has spent waiting on interrupts, or bad addresses, or out of MSHRs (Cycle)
system.cpu0.fetch.pendingTrapStallCycles         8796                       # Number of stall cycles due to pending traps (Cycle)
system.cpu0.fetch.icacheWaitRetryStallCycles           80                       # Number of stall cycles due to full MSHR (Cycle)
system.cpu0.fetch.cacheLines                  5337467                       # Number of cache lines fetched (Count)
system.cpu0.fetch.icacheSquashes                 3357                       # Number of outstanding Icache misses that were squashed (Count)
system.cpu0.fetch.nisnDist::samples         188341563                       # Number of instructions fetched each cycle (Total) (Count)
system.cpu0.fetch.nisnDist::mean             0.476316                       # Number of instructions fetched each cycle (Total) (Count)
system.cpu0.fetch.nisnDist::stdev            1.796400                       # Number of instructions fetched each cycle (Total) (Count)
system.cpu0.fetch.nisnDist::underflows              0      0.00%      0.00% # Number of instructions fetched each cycle (Total) (Count)
system.cpu0.fetch.nisnDist::0               174621703     92.72%     92.72% # Number of instructions fetched each cycle (Total) (Count)
system.cpu0.fetch.nisnDist::1                  394666      0.21%     92.92% # Number of instructions fetched each cycle (Total) (Count)
system.cpu0.fetch.nisnDist::2                  758461      0.40%     93.33% # Number of instructions fetched each cycle (Total) (Count)
system.cpu0.fetch.nisnDist::3                 1126261      0.60%     93.93% # Number of instructions fetched each cycle (Total) (Count)
system.cpu0.fetch.nisnDist::4                  504683      0.27%     94.19% # Number of instructions fetched each cycle (Total) (Count)
system.cpu0.fetch.nisnDist::5                  392896      0.21%     94.40% # Number of instructions fetched each cycle (Total) (Count)
system.cpu0.fetch.nisnDist::6                 1455404      0.77%     95.17% # Number of instructions fetched each cycle (Total) (Count)
system.cpu0.fetch.nisnDist::7                  995827      0.53%     95.70% # Number of instructions fetched each cycle (Total) (Count)
system.cpu0.fetch.nisnDist::8                 8091662      4.30%    100.00% # Number of instructions fetched each cycle (Total) (Count)
system.cpu0.fetch.nisnDist::overflows               0      0.00%    100.00% # Number of instructions fetched each cycle (Total) (Count)
system.cpu0.fetch.nisnDist::min_value               0                       # Number of instructions fetched each cycle (Total) (Count)
system.cpu0.fetch.nisnDist::max_value               8                       # Number of instructions fetched each cycle (Total) (Count)
system.cpu0.fetch.nisnDist::total           188341563                       # Number of instructions fetched each cycle (Total) (Count)
system.cpu0.fetch.branchRate                 0.030907                       # Number of branch fetches per cycle (Ratio)
system.cpu0.fetch.rate                       0.231726                       # Number of inst fetches per cycle ((Count/Cycle))
system.cpu0.icache.demandHits::cpu0.inst      5333992                       # number of demand (read+write) hits (Count)
system.cpu0.icache.demandHits::total          5333992                       # number of demand (read+write) hits (Count)
system.cpu0.icache.overallHits::cpu0.inst      5333992                       # number of overall hits (Count)
system.cpu0.icache.overallHits::total         5333992                       # number of overall hits (Count)
system.cpu0.icache.demandMisses::cpu0.inst         3475                       # number of demand (read+write) misses (Count)
system.cpu0.icache.demandMisses::total           3475                       # number of demand (read+write) misses (Count)
system.cpu0.icache.overallMisses::cpu0.inst         3475                       # number of overall misses (Count)
system.cpu0.icache.overallMisses::total          3475                       # number of overall misses (Count)
system.cpu0.icache.demandMissLatency::cpu0.inst    229235749                       # number of demand (read+write) miss ticks (Tick)
system.cpu0.icache.demandMissLatency::total    229235749                       # number of demand (read+write) miss ticks (Tick)
system.cpu0.icache.overallMissLatency::cpu0.inst    229235749                       # number of overall miss ticks (Tick)
system.cpu0.icache.overallMissLatency::total    229235749                       # number of overall miss ticks (Tick)
system.cpu0.icache.demandAccesses::cpu0.inst      5337467                       # number of demand (read+write) accesses (Count)
system.cpu0.icache.demandAccesses::total      5337467                       # number of demand (read+write) accesses (Count)
system.cpu0.icache.overallAccesses::cpu0.inst      5337467                       # number of overall (read+write) accesses (Count)
system.cpu0.icache.overallAccesses::total      5337467                       # number of overall (read+write) accesses (Count)
system.cpu0.icache.demandMissRate::cpu0.inst     0.000651                       # miss rate for demand accesses (Ratio)
system.cpu0.icache.demandMissRate::total     0.000651                       # miss rate for demand accesses (Ratio)
system.cpu0.icache.overallMissRate::cpu0.inst     0.000651                       # miss rate for overall accesses (Ratio)
system.cpu0.icache.overallMissRate::total     0.000651                       # miss rate for overall accesses (Ratio)
system.cpu0.icache.demandAvgMissLatency::cpu0.inst 65967.122014                       # average overall miss latency in ticks ((Tick/Count))
system.cpu0.icache.demandAvgMissLatency::total 65967.122014                       # average overall miss latency in ticks ((Tick/Count))
system.cpu0.icache.overallAvgMissLatency::cpu0.inst 65967.122014                       # average overall miss latency ((Tick/Count))
system.cpu0.icache.overallAvgMissLatency::total 65967.122014                       # average overall miss latency ((Tick/Count))
system.cpu0.icache.blockedCycles::no_mshrs         1016                       # number of cycles access was blocked (Cycle)
system.cpu0.icache.blockedCycles::no_targets            0                       # number of cycles access was blocked (Cycle)
system.cpu0.icache.blockedCauses::no_mshrs           18                       # number of times access was blocked (Count)
system.cpu0.icache.blockedCauses::no_targets            0                       # number of times access was blocked (Count)
system.cpu0.icache.avgBlocked::no_mshrs     56.444444                       # average number of cycles each access was blocked ((Cycle/Count))
system.cpu0.icache.avgBlocked::no_targets          nan                       # average number of cycles each access was blocked ((Cycle/Count))
system.cpu0.icache.writebacks::writebacks         2212                       # number of writebacks (Count)
system.cpu0.icache.writebacks::total             2212                       # number of writebacks (Count)
system.cpu0.icache.demandMshrHits::cpu0.inst          740                       # number of demand (read+write) MSHR hits (Count)
system.cpu0.icache.demandMshrHits::total          740                       # number of demand (read+write) MSHR hits (Count)
system.cpu0.icache.overallMshrHits::cpu0.inst          740                       # number of overall MSHR hits (Count)
system.cpu0.icache.overallMshrHits::total          740                       # number of overall MSHR hits (Count)
system.cpu0.icache.demandMshrMisses::cpu0.inst         2735                       # number of demand (read+write) MSHR misses (Count)
system.cpu0.icache.demandMshrMisses::total         2735                       # number of demand (read+write) MSHR misses (Count)
system.cpu0.icache.overallMshrMisses::cpu0.inst         2735                       # number of overall MSHR misses (Count)
system.cpu0.icache.overallMshrMisses::total         2735                       # number of overall MSHR misses (Count)
system.cpu0.icache.demandMshrMissLatency::cpu0.inst    179834500                       # number of demand (read+write) MSHR miss ticks (Tick)
system.cpu0.icache.demandMshrMissLatency::total    179834500                       # number of demand (read+write) MSHR miss ticks (Tick)
system.cpu0.icache.overallMshrMissLatency::cpu0.inst    179834500                       # number of overall MSHR miss ticks (Tick)
system.cpu0.icache.overallMshrMissLatency::total    179834500                       # number of overall MSHR miss ticks (Tick)
system.cpu0.icache.demandMshrMissRate::cpu0.inst     0.000512                       # mshr miss ratio for demand accesses (Ratio)
system.cpu0.icache.demandMshrMissRate::total     0.000512                       # mshr miss ratio for demand accesses (Ratio)
system.cpu0.icache.overallMshrMissRate::cpu0.inst     0.000512                       # mshr miss ratio for overall accesses (Ratio)
system.cpu0.icache.overallMshrMissRate::total     0.000512                       # mshr miss ratio for overall accesses (Ratio)
system.cpu0.icache.demandAvgMshrMissLatency::cpu0.inst 65753.016453                       # average overall mshr miss latency ((Tick/Count))
system.cpu0.icache.demandAvgMshrMissLatency::total 65753.016453                       # average overall mshr miss latency ((Tick/Count))
system.cpu0.icache.overallAvgMshrMissLatency::cpu0.inst 65753.016453                       # average overall mshr miss latency ((Tick/Count))
system.cpu0.icache.overallAvgMshrMissLatency::total 65753.016453                       # average overall mshr miss latency ((Tick/Count))
system.cpu0.icache.replacements                  2212                       # number of replacements (Count)
system.cpu0.icache.ReadReq.hits::cpu0.inst      5333992                       # number of ReadReq hits (Count)
system.cpu0.icache.ReadReq.hits::total        5333992                       # number of ReadReq hits (Count)
system.cpu0.icache.ReadReq.misses::cpu0.inst         3475                       # number of ReadReq misses (Count)
system.cpu0.icache.ReadReq.misses::total         3475                       # number of ReadReq misses (Count)
system.cpu0.icache.ReadReq.missLatency::cpu0.inst    229235749                       # number of ReadReq miss ticks (Tick)
system.cpu0.icache.ReadReq.missLatency::total    229235749                       # number of ReadReq miss ticks (Tick)
system.cpu0.icache.ReadReq.accesses::cpu0.inst      5337467                       # number of ReadReq accesses(hits+misses) (Count)
system.cpu0.icache.ReadReq.accesses::total      5337467                       # number of ReadReq accesses(hits+misses) (Count)
system.cpu0.icache.ReadReq.missRate::cpu0.inst     0.000651                       # miss rate for ReadReq accesses (Ratio)
system.cpu0.icache.ReadReq.missRate::total     0.000651                       # miss rate for ReadReq accesses (Ratio)
system.cpu0.icache.ReadReq.avgMissLatency::cpu0.inst 65967.122014                       # average ReadReq miss latency ((Tick/Count))
system.cpu0.icache.ReadReq.avgMissLatency::total 65967.122014                       # average ReadReq miss latency ((Tick/Count))
system.cpu0.icache.ReadReq.mshrHits::cpu0.inst          740                       # number of ReadReq MSHR hits (Count)
system.cpu0.icache.ReadReq.mshrHits::total          740                       # number of ReadReq MSHR hits (Count)
system.cpu0.icache.ReadReq.mshrMisses::cpu0.inst         2735                       # number of ReadReq MSHR misses (Count)
system.cpu0.icache.ReadReq.mshrMisses::total         2735                       # number of ReadReq MSHR misses (Count)
system.cpu0.icache.ReadReq.mshrMissLatency::cpu0.inst    179834500                       # number of ReadReq MSHR miss ticks (Tick)
system.cpu0.icache.ReadReq.mshrMissLatency::total    179834500                       # number of ReadReq MSHR miss ticks (Tick)
system.cpu0.icache.ReadReq.mshrMissRate::cpu0.inst     0.000512                       # mshr miss rate for ReadReq accesses (Ratio)
system.cpu0.icache.ReadReq.mshrMissRate::total     0.000512                       # mshr miss rate for ReadReq accesses (Ratio)
system.cpu0.icache.ReadReq.avgMshrMissLatency::cpu0.inst 65753.016453                       # average ReadReq mshr miss latency ((Tick/Count))
system.cpu0.icache.ReadReq.avgMshrMissLatency::total 65753.016453                       # average ReadReq mshr miss latency ((Tick/Count))
system.cpu0.icache.power_state.pwrStateResidencyTicks::UNDEFINED  47184535750                       # Cumulative time (in ticks) in various power states (Tick)
system.cpu0.icache.tags.tagsInUse          509.180102                       # Average ticks per tags in use ((Tick/Count))
system.cpu0.icache.tags.totalRefs             5336726                       # Total number of references to valid blocks. (Count)
system.cpu0.icache.tags.sampledRefs              2734                       # Sample count of references to valid blocks. (Count)
system.cpu0.icache.tags.avgRefs           1951.984638                       # Average number of references to valid blocks. ((Count/Count))
system.cpu0.icache.tags.warmupTick              85250                       # The tick when the warmup percentage was hit. (Tick)
system.cpu0.icache.tags.occupancies::cpu0.inst   509.180102                       # Average occupied blocks per tick, per requestor ((Count/Tick))
system.cpu0.icache.tags.avgOccs::cpu0.inst     0.994492                       # Average percentage of cache occupancy ((Ratio/Tick))
system.cpu0.icache.tags.avgOccs::total       0.994492                       # Average percentage of cache occupancy ((Ratio/Tick))
system.cpu0.icache.tags.occupanciesTaskId::1024          512                       # Occupied blocks per task id (Count)
system.cpu0.icache.tags.ageTaskId_1024::0          107                       # Occupied blocks per task id, per block age (Count)
system.cpu0.icache.tags.ageTaskId_1024::1           71                       # Occupied blocks per task id, per block age (Count)
system.cpu0.icache.tags.ageTaskId_1024::4          334                       # Occupied blocks per task id, per block age (Count)
system.cpu0.icache.tags.ratioOccsTaskId::1024            1                       # Ratio of occupied blocks and all blocks, per task id (Ratio)
system.cpu0.icache.tags.tagAccesses          10677668                       # Number of tag accesses (Count)
system.cpu0.icache.tags.dataAccesses         10677668                       # Number of data accesses (Count)
system.cpu0.icache.tags.power_state.pwrStateResidencyTicks::UNDEFINED  47184535750                       # Cumulative time (in ticks) in various power states (Tick)
system.cpu0.iew.idleCycles                          0                       # Number of cycles IEW is idle (Cycle)
system.cpu0.iew.squashCycles                   261707                       # Number of cycles IEW is squashing (Cycle)
system.cpu0.iew.blockCycles                  37815671                       # Number of cycles IEW is blocking (Cycle)
system.cpu0.iew.unblockCycles                13237934                       # Number of cycles IEW is unblocking (Cycle)
system.cpu0.iew.dispatchedInsts              77007562                       # Number of instructions dispatched to IQ (Count)
system.cpu0.iew.dispSquashedInsts                1041                       # Number of squashed instructions skipped by dispatch (Count)
system.cpu0.iew.dispLoadInsts                15730921                       # Number of dispatched load instructions (Count)
system.cpu0.iew.dispStoreInsts               10822641                       # Number of dispatched store instructions (Count)
system.cpu0.iew.dispNonSpecInsts                  574                       # Number of dispatched non-speculative instructions (Count)
system.cpu0.iew.iqFullEvents                    53648                       # Number of times the IQ has become full, causing a stall (Count)
system.cpu0.iew.lsqFullEvents                13107502                       # Number of times the LSQ has become full, causing a stall (Count)
system.cpu0.iew.memOrderViolationEvents           317                       # Number of memory order violations (Count)
system.cpu0.iew.predictedTakenIncorrect          2774                       # Number of branches that were predicted taken incorrectly (Count)
system.cpu0.iew.predictedNotTakenIncorrect         7576                       # Number of branches that were predicted not taken incorrectly (Count)
system.cpu0.iew.branchMispredicts               10350                       # Number of branch mispredicts detected at execute (Count)
system.cpu0.iew.instsToCommit                76847790                       # Cumulative count of insts sent to commit (Count)
[...]
system.membus.reqLayer40.utilization              0.0                       # Layer utilization (Ratio)
system.membus.reqLayer41.occupancy          744609499                       # Layer occupancy (ticks) (Tick)
system.membus.reqLayer41.utilization              0.0                       # Layer utilization (Ratio)
system.membus.reqLayer42.occupancy          745524982                       # Layer occupancy (ticks) (Tick)
system.membus.reqLayer42.utilization              0.0                       # Layer utilization (Ratio)
system.membus.reqLayer43.occupancy          745456636                       # Layer occupancy (ticks) (Tick)
system.membus.reqLayer43.utilization              0.0                       # Layer utilization (Ratio)
system.membus.reqLayer44.occupancy          744697027                       # Layer occupancy (ticks) (Tick)
system.membus.reqLayer44.utilization              0.0                       # Layer utilization (Ratio)
system.membus.reqLayer45.occupancy          744712112                       # Layer occupancy (ticks) (Tick)
system.membus.reqLayer45.utilization              0.0                       # Layer utilization (Ratio)
system.membus.reqLayer46.occupancy          744674973                       # Layer occupancy (ticks) (Tick)
system.membus.reqLayer46.utilization              0.0                       # Layer utilization (Ratio)
system.membus.reqLayer47.occupancy          744481565                       # Layer occupancy (ticks) (Tick)
system.membus.reqLayer47.utilization              0.0                       # Layer utilization (Ratio)
system.membus.respLayer1.occupancy        29414258206                       # Layer occupancy (ticks) (Tick)
system.membus.respLayer1.utilization              0.6                       # Layer utilization (Ratio)
system.membus.snoop_filter.totRequests       11718355                       # Total number of requests made to the snoop filter. (Count)
system.membus.snoop_filter.hitSingleRequests      5842651                       # Number of requests hitting in the snoop filter with a single holder of the requested data. (Count)
system.membus.snoop_filter.hitMultiRequests            0                       # Number of requests hitting in the snoop filter with multiple (>1) holders of the requested data. (Count)
system.membus.snoop_filter.totSnoops                0                       # Total number of snoops made to the snoop filter. (Count)
system.membus.snoop_filter.hitSingleSnoops            0                       # Number of snoops hitting in the snoop filter with a single holder of the requested data. (Count)
system.membus.snoop_filter.hitMultiSnoops            0                       # Number of snoops hitting in the snoop filter with multiple (>1) holders of the requested data. (Count)
system.tol2bus.transDist::ReadResp            3510208                       # Transaction distribution (Count)
system.tol2bus.transDist::WritebackDirty      5003750                       # Transaction distribution (Count)
system.tol2bus.transDist::WritebackClean         2229                       # Transaction distribution (Count)
system.tol2bus.transDist::CleanEvict          6720712                       # Transaction distribution (Count)
system.tol2bus.transDist::UpgradeReq              302                       # Transaction distribution (Count)
system.tol2bus.transDist::UpgradeResp             302                       # Transaction distribution (Count)
system.tol2bus.transDist::ReadExReq           2377619                       # Transaction distribution (Count)
system.tol2bus.transDist::ReadExResp          2377619                       # Transaction distribution (Count)
system.tol2bus.transDist::ReadCleanReq           3355                       # Transaction distribution (Count)
system.tol2bus.transDist::ReadSharedReq       3506854                       # Transaction distribution (Count)
system.tol2bus.pktCount_system.cpu0.icache.mem_side_port::system.l2.cpu_side_port         7674                       # Packet count per connected requestor and responder (Count)
system.tol2bus.pktCount_system.cpu0.dcache.mem_side_port::system.l2.cpu_side_port      3204414                       # Packet count per connected requestor and responder (Count)
system.tol2bus.pktCount_system.cpu1.icache.mem_side_port::system.l2.cpu_side_port          294                       # Packet count per connected requestor and responder (Count)
system.tol2bus.pktCount_system.cpu1.dcache.mem_side_port::system.l2.cpu_side_port      2062719                       # Packet count per connected requestor and responder (Count)
system.tol2bus.pktCount_system.cpu2.icache.mem_side_port::system.l2.cpu_side_port          157                       # Packet count per connected requestor and responder (Count)
system.tol2bus.pktCount_system.cpu2.dcache.mem_side_port::system.l2.cpu_side_port      2062450                       # Packet count per connected requestor and responder (Count)
system.tol2bus.pktCount_system.cpu3.icache.mem_side_port::system.l2.cpu_side_port          151                       # Packet count per connected requestor and responder (Count)
system.tol2bus.pktCount_system.cpu3.dcache.mem_side_port::system.l2.cpu_side_port      2062418                       # Packet count per connected requestor and responder (Count)
system.tol2bus.pktCount_system.cpu4.icache.mem_side_port::system.l2.cpu_side_port          153                       # Packet count per connected requestor and responder (Count)
system.tol2bus.pktCount_system.cpu4.dcache.mem_side_port::system.l2.cpu_side_port      2062416                       # Packet count per connected requestor and responder (Count)
system.tol2bus.pktCount_system.cpu5.icache.mem_side_port::system.l2.cpu_side_port          159                       # Packet count per connected requestor and responder (Count)
system.tol2bus.pktCount_system.cpu5.dcache.mem_side_port::system.l2.cpu_side_port      2062457                       # Packet count per connected requestor and responder (Count)
system.tol2bus.pktCount_system.cpu6.icache.mem_side_port::system.l2.cpu_side_port          157                       # Packet count per connected requestor and responder (Count)
system.tol2bus.pktCount_system.cpu6.dcache.mem_side_port::system.l2.cpu_side_port      2062507                       # Packet count per connected requestor and responder (Count)
system.tol2bus.pktCount_system.cpu7.icache.mem_side_port::system.l2.cpu_side_port          155                       # Packet count per connected requestor and responder (Count)
system.tol2bus.pktCount_system.cpu7.dcache.mem_side_port::system.l2.cpu_side_port      2062449                       # Packet count per connected requestor and responder (Count)
system.tol2bus.pktCount::total               17650730                       # Packet count per connected requestor and responder (Count)
system.tol2bus.pktSize_system.cpu0.icache.mem_side_port::system.l2.cpu_side_port       316096                       # Cumulative packet size per connected requestor and responder (Byte)
system.tol2bus.pktSize_system.cpu0.dcache.mem_side_port::system.l2.cpu_side_port     88505856                       # Cumulative packet size per connected requestor and responder (Byte)
system.tol2bus.pktSize_system.cpu1.icache.mem_side_port::system.l2.cpu_side_port         9408                       # Cumulative packet size per connected requestor and responder (Byte)
system.tol2bus.pktSize_system.cpu1.dcache.mem_side_port::system.l2.cpu_side_port     64015232                       # Cumulative packet size per connected requestor and responder (Byte)
system.tol2bus.pktSize_system.cpu2.icache.mem_side_port::system.l2.cpu_side_port         4928                       # Cumulative packet size per connected requestor and responder (Byte)
system.tol2bus.pktSize_system.cpu2.dcache.mem_side_port::system.l2.cpu_side_port     64010304                       # Cumulative packet size per connected requestor and responder (Byte)
system.tol2bus.pktSize_system.cpu3.icache.mem_side_port::system.l2.cpu_side_port         4736                       # Cumulative packet size per connected requestor and responder (Byte)
system.tol2bus.pktSize_system.cpu3.dcache.mem_side_port::system.l2.cpu_side_port     64008832                       # Cumulative packet size per connected requestor and responder (Byte)
system.tol2bus.pktSize_system.cpu4.icache.mem_side_port::system.l2.cpu_side_port         4800                       # Cumulative packet size per connected requestor and responder (Byte)
system.tol2bus.pktSize_system.cpu4.dcache.mem_side_port::system.l2.cpu_side_port     64009088                       # Cumulative packet size per connected requestor and responder (Byte)
system.tol2bus.pktSize_system.cpu5.icache.mem_side_port::system.l2.cpu_side_port         4992                       # Cumulative packet size per connected requestor and responder (Byte)
system.tol2bus.pktSize_system.cpu5.dcache.mem_side_port::system.l2.cpu_side_port     64009792                       # Cumulative packet size per connected requestor and responder (Byte)
system.tol2bus.pktSize_system.cpu6.icache.mem_side_port::system.l2.cpu_side_port         4928                       # Cumulative packet size per connected requestor and responder (Byte)
system.tol2bus.pktSize_system.cpu6.dcache.mem_side_port::system.l2.cpu_side_port     64011904                       # Cumulative packet size per connected requestor and responder (Byte)
system.tol2bus.pktSize_system.cpu7.icache.mem_side_port::system.l2.cpu_side_port         4992                       # Cumulative packet size per connected requestor and responder (Byte)
system.tol2bus.pktSize_system.cpu7.dcache.mem_side_port::system.l2.cpu_side_port     64010176                       # Cumulative packet size per connected requestor and responder (Byte)
system.tol2bus.pktSize::total               536936064                       # Cumulative packet size per connected requestor and responder (Byte)
system.tol2bus.snoops                         5852220                       # Total snoops (Count)
system.tol2bus.snoopTraffic                 160267520                       # Total snoop traffic (Byte)
system.tol2bus.snoopFanout::samples          13176202                       # Request fanout histogram (Count)
system.tol2bus.snoopFanout::mean             0.002595                       # Request fanout histogram (Count)
system.tol2bus.snoopFanout::stdev            0.081954                       # Request fanout histogram (Count)
system.tol2bus.snoopFanout::underflows              0      0.00%      0.00% # Request fanout histogram (Count)
system.tol2bus.snoopFanout::0                13151278     99.81%     99.81% # Request fanout histogram (Count)
system.tol2bus.snoopFanout::1                   22507      0.17%     99.98% # Request fanout histogram (Count)
system.tol2bus.snoopFanout::2                     478      0.00%     99.99% # Request fanout histogram (Count)
system.tol2bus.snoopFanout::3                     298      0.00%     99.99% # Request fanout histogram (Count)
system.tol2bus.snoopFanout::4                     301      0.00%     99.99% # Request fanout histogram (Count)
system.tol2bus.snoopFanout::5                     281      0.00%     99.99% # Request fanout histogram (Count)
system.tol2bus.snoopFanout::6                     275      0.00%     99.99% # Request fanout histogram (Count)
system.tol2bus.snoopFanout::7                     699      0.01%    100.00% # Request fanout histogram (Count)
system.tol2bus.snoopFanout::8                      83      0.00%    100.00% # Request fanout histogram (Count)
system.tol2bus.snoopFanout::9                       1      0.00%    100.00% # Request fanout histogram (Count)
system.tol2bus.snoopFanout::10                      1      0.00%    100.00% # Request fanout histogram (Count)
system.tol2bus.snoopFanout::11                      0      0.00%    100.00% # Request fanout histogram (Count)
system.tol2bus.snoopFanout::12                      0      0.00%    100.00% # Request fanout histogram (Count)
system.tol2bus.snoopFanout::13                      0      0.00%    100.00% # Request fanout histogram (Count)
system.tol2bus.snoopFanout::14                      0      0.00%    100.00% # Request fanout histogram (Count)
system.tol2bus.snoopFanout::15                      0      0.00%    100.00% # Request fanout histogram (Count)
system.tol2bus.snoopFanout::16                      0      0.00%    100.00% # Request fanout histogram (Count)
system.tol2bus.snoopFanout::17                      0      0.00%    100.00% # Request fanout histogram (Count)
system.tol2bus.snoopFanout::18                      0      0.00%    100.00% # Request fanout histogram (Count)
system.tol2bus.snoopFanout::19                      0      0.00%    100.00% # Request fanout histogram (Count)
system.tol2bus.snoopFanout::20                      0      0.00%    100.00% # Request fanout histogram (Count)
system.tol2bus.snoopFanout::21                      0      0.00%    100.00% # Request fanout histogram (Count)
system.tol2bus.snoopFanout::22                      0      0.00%    100.00% # Request fanout histogram (Count)
system.tol2bus.snoopFanout::23                      0      0.00%    100.00% # Request fanout histogram (Count)
system.tol2bus.snoopFanout::24                      0      0.00%    100.00% # Request fanout histogram (Count)
system.tol2bus.snoopFanout::25                      0      0.00%    100.00% # Request fanout histogram (Count)
system.tol2bus.snoopFanout::26                      0      0.00%    100.00% # Request fanout histogram (Count)
system.tol2bus.snoopFanout::27                      0      0.00%    100.00% # Request fanout histogram (Count)
system.tol2bus.snoopFanout::28                      0      0.00%    100.00% # Request fanout histogram (Count)
system.tol2bus.snoopFanout::29                      0      0.00%    100.00% # Request fanout histogram (Count)
system.tol2bus.snoopFanout::30                      0      0.00%    100.00% # Request fanout histogram (Count)
system.tol2bus.snoopFanout::31                      0      0.00%    100.00% # Request fanout histogram (Count)
system.tol2bus.snoopFanout::32                      0      0.00%    100.00% # Request fanout histogram (Count)
system.tol2bus.snoopFanout::overflows               0      0.00%    100.00% # Request fanout histogram (Count)
system.tol2bus.snoopFanout::min_value               0                       # Request fanout histogram (Count)
system.tol2bus.snoopFanout::max_value              10                       # Request fanout histogram (Count)
system.tol2bus.snoopFanout::total            13176202                       # Request fanout histogram (Count)
system.tol2bus.power_state.pwrStateResidencyTicks::UNDEFINED  47184535750                       # Cumulative time (in ticks) in various power states (Tick)
system.tol2bus.reqLayer0.occupancy         5687981720                       # Layer occupancy (ticks) (Tick)
system.tol2bus.reqLayer0.utilization              0.1                       # Layer utilization (Ratio)
system.tol2bus.respLayer0.occupancy           2052708                       # Layer occupancy (ticks) (Tick)
system.tol2bus.respLayer0.utilization             0.0                       # Layer utilization (Ratio)
system.tol2bus.respLayer1.occupancy         801690922                       # Layer occupancy (ticks) (Tick)
system.tol2bus.respLayer1.utilization             0.0                       # Layer utilization (Ratio)
system.tol2bus.respLayer12.occupancy            65131                       # Layer occupancy (ticks) (Tick)
system.tol2bus.respLayer12.utilization            0.0                       # Layer utilization (Ratio)
system.tol2bus.respLayer13.occupancy        515959625                       # Layer occupancy (ticks) (Tick)
system.tol2bus.respLayer13.utilization            0.0                       # Layer utilization (Ratio)
system.tol2bus.respLayer16.occupancy            65391                       # Layer occupancy (ticks) (Tick)
system.tol2bus.respLayer16.utilization            0.0                       # Layer utilization (Ratio)
system.tol2bus.respLayer17.occupancy        515956842                       # Layer occupancy (ticks) (Tick)
system.tol2bus.respLayer17.utilization            0.0                       # Layer utilization (Ratio)
system.tol2bus.respLayer20.occupancy            67402                       # Layer occupancy (ticks) (Tick)
system.tol2bus.respLayer20.utilization            0.0                       # Layer utilization (Ratio)
system.tol2bus.respLayer21.occupancy        515965890                       # Layer occupancy (ticks) (Tick)
system.tol2bus.respLayer21.utilization            0.0                       # Layer utilization (Ratio)
system.tol2bus.respLayer24.occupancy            66655                       # Layer occupancy (ticks) (Tick)
system.tol2bus.respLayer24.utilization            0.0                       # Layer utilization (Ratio)
system.tol2bus.respLayer25.occupancy        515972388                       # Layer occupancy (ticks) (Tick)
system.tol2bus.respLayer25.utilization            0.0                       # Layer utilization (Ratio)
system.tol2bus.respLayer28.occupancy            62428                       # Layer occupancy (ticks) (Tick)
system.tol2bus.respLayer28.utilization            0.0                       # Layer utilization (Ratio)
system.tol2bus.respLayer29.occupancy        515961827                       # Layer occupancy (ticks) (Tick)
system.tol2bus.respLayer29.utilization            0.0                       # Layer utilization (Ratio)
system.tol2bus.respLayer4.occupancy            117401                       # Layer occupancy (ticks) (Tick)
system.tol2bus.respLayer4.utilization             0.0                       # Layer utilization (Ratio)
system.tol2bus.respLayer5.occupancy         516042635                       # Layer occupancy (ticks) (Tick)
system.tol2bus.respLayer5.utilization             0.0                       # Layer utilization (Ratio)
system.tol2bus.respLayer8.occupancy             69374                       # Layer occupancy (ticks) (Tick)
system.tol2bus.respLayer8.utilization             0.0                       # Layer utilization (Ratio)
system.tol2bus.respLayer9.occupancy         515962870                       # Layer occupancy (ticks) (Tick)
system.tol2bus.respLayer9.utilization             0.0                       # Layer utilization (Ratio)
system.tol2bus.snoop_filter.totRequests      14760593                       # Total number of requests made to the snoop filter. (Count)
system.tol2bus.snoop_filter.hitSingleRequests      7434052                       # Number of requests hitting in the snoop filter with a single holder of the requested data. (Count)
system.tol2bus.snoop_filter.hitMultiRequests        11185                       # Number of requests hitting in the snoop filter with multiple (>1) holders of the requested data. (Count)
system.tol2bus.snoop_filter.totSnoops           13700                       # Total number of snoops made to the snoop filter. (Count)
system.tol2bus.snoop_filter.hitSingleSnoops        13365                       # Number of snoops hitting in the snoop filter with a single holder of the requested data. (Count)
system.tol2bus.snoop_filter.hitMultiSnoops          335                       # Number of snoops hitting in the snoop filter with multiple (>1) holders of the requested data. (Count)
system.voltage_domain.voltage                       1                       # Voltage in Volts (Volt)
system.workload.inst.arm                            0                       # number of arm instructions executed (Count)
system.workload.inst.quiesce                        0                       # number of quiesce instructions executed (Count)

---------- End Simulation Statistics   ----------
