
---------- Begin Simulation Statistics ----------
simSeconds                                  11.872249                       # Number of seconds simulated (Second)
simTicks                                 11872248773000                       # Number of ticks simulated (Tick)
finalTick                                11872248773000                       # Number of ticks from beginning of simulation (restored from checkpoints and never reset) (Tick)
simFreq                                  1000000000000                       # The number of ticks per simulated second ((Tick/Second))
hostSeconds                                    776.65                       # Real time elapsed on the host (Second)
hostTickRate                              15286524621                       # The number of ticks simulated per host second (ticks/s) ((Tick/Second))
hostMemory                                     672000                       # Number of bytes of host memory used (Byte)
simInsts                                    103237239                       # Number of instructions simulated (Count)
simOps                                      204441972                       # Number of ops (including micro ops) simulated (Count)
hostInstRate                                   132927                       # Simulator instruction rate (inst/s) ((Count/Second))
hostOpRate                                     263236                       # Simulator op (including micro ops) rate (op/s) ((Count/Second))
system.clk_domain.clock                          1000                       # Clock period in ticks (Tick)
system.cpu.numCycles                      47488995092                       # Number of cpu cycles simulated (Cycle)
system.cpu.numWorkItemsStarted                      0                       # Number of work items this cpu started (Count)
system.cpu.numWorkItemsCompleted                    0                       # Number of work items this cpu completed (Count)
system.cpu.exec_context.thread_0.numInsts    103237239                       # Number of instructions committed (Count)
system.cpu.exec_context.thread_0.numOps     204441972                       # Number of ops (including micro ops) committed (Count)
system.cpu.exec_context.thread_0.numIntAluAccesses    163432978                       # Number of integer alu accesses (Count)
system.cpu.exec_context.thread_0.numFpAluAccesses     83009918                       # Number of float alu accesses (Count)
system.cpu.exec_context.thread_0.numVecAluAccesses            0                       # Number of vector alu accesses (Count)
system.cpu.exec_context.thread_0.numCallsReturns         3786                       # Number of times a function call or return occured (Count)
system.cpu.exec_context.thread_0.numCondCtrlInsts     18043968                       # Number of instructions that are conditional controls (Count)
system.cpu.exec_context.thread_0.numIntInsts    163432978                       # Number of integer instructions (Count)
system.cpu.exec_context.thread_0.numFpInsts     83009918                       # Number of float instructions (Count)
system.cpu.exec_context.thread_0.numVecInsts            0                       # Number of vector instructions (Count)
system.cpu.exec_context.thread_0.numIntRegReads    179566085                       # Number of times the integer registers were read (Count)
system.cpu.exec_context.thread_0.numIntRegWrites     87318879                       # Number of times the integer registers were written (Count)
system.cpu.exec_context.thread_0.numFpRegReads     90013954                       # Number of times the floating registers were read (Count)
system.cpu.exec_context.thread_0.numFpRegWrites     65007391                       # Number of times the floating registers were written (Count)
system.cpu.exec_context.thread_0.numVecRegReads            0                       # Number of times the vector registers were read (Count)
system.cpu.exec_context.thread_0.numVecRegWrites            0                       # Number of times the vector registers were written (Count)
system.cpu.exec_context.thread_0.numVecPredRegReads            0                       # Number of times the predicate registers were read (Count)
system.cpu.exec_context.thread_0.numVecPredRegWrites            0                       # Number of times the predicate registers were written (Count)
system.cpu.exec_context.thread_0.numCCRegReads     96275450                       # Number of times the CC registers were read (Count)
system.cpu.exec_context.thread_0.numCCRegWrites     66171919                       # Number of times the CC registers were written (Count)
system.cpu.exec_context.thread_0.numMiscRegReads     84180035                       # Number of times the Misc registers were read (Count)
system.cpu.exec_context.thread_0.numMiscRegWrites           18                       # Number of times the Misc registers were written (Count)
system.cpu.exec_context.thread_0.numMemRefs     43074748                       # Number of memory refs (Count)
system.cpu.exec_context.thread_0.numLoadInsts     27054148                       # Number of load instructions (Count)
system.cpu.exec_context.thread_0.numStoreInsts     16020600                       # Number of store instructions (Count)
system.cpu.exec_context.thread_0.numIdleCycles     0.004002                       # Number of idle cycles (Cycle)
system.cpu.exec_context.thread_0.numBusyCycles 47488995091.995995                       # Number of busy cycles (Cycle)
system.cpu.exec_context.thread_0.notIdleFraction     1.000000                       # Percentage of non-idle cycles (Ratio)
system.cpu.exec_context.thread_0.idleFraction     0.000000                       # Percentage of idle cycles (Ratio)
system.cpu.exec_context.thread_0.numBranches     18053486                       # Number of branches fetched (Count)
system.cpu.exec_context.thread_0.statExecutedInstType::No_OpClass         2748      0.00%      0.00% # Class of executed instruction. (Count)
system.cpu.exec_context.thread_0.statExecutedInstType::IntAlu    126357104     61.81%     61.81% # Class of executed instruction. (Count)
system.cpu.exec_context.thread_0.statExecutedInstType::IntMult          202      0.00%     61.81% # Class of executed instruction. (Count)
system.cpu.exec_context.thread_0.statExecutedInstType::IntDiv         1541      0.00%     61.81% # Class of executed instruction. (Count)
system.cpu.exec_context.thread_0.statExecutedInstType::FloatAdd     13000561      6.36%     68.17% # Class of executed instruction. (Count)
system.cpu.exec_context.thread_0.statExecutedInstType::FloatCmp            0      0.00%     68.17% # Class of executed instruction. (Count)
system.cpu.exec_context.thread_0.statExecutedInstType::FloatCvt           32      0.00%     68.17% # Class of executed instruction. (Count)
system.cpu.exec_context.thread_0.statExecutedInstType::FloatMult            0      0.00%     68.17% # Class of executed instruction. (Count)
system.cpu.exec_context.thread_0.statExecutedInstType::FloatMultAcc            0      0.00%     68.17% # Class of executed instruction. (Count)
system.cpu.exec_context.thread_0.statExecutedInstType::FloatDiv            0      0.00%     68.17% # Class of executed instruction. (Count)
system.cpu.exec_context.thread_0.statExecutedInstType::FloatMisc            0      0.00%     68.17% # Class of executed instruction. (Count)
system.cpu.exec_context.thread_0.statExecutedInstType::FloatSqrt            0      0.00%     68.17% # Class of executed instruction. (Count)
system.cpu.exec_context.thread_0.statExecutedInstType::SimdAdd          328      0.00%     68.17% # Class of executed instruction. (Count)
system.cpu.exec_context.thread_0.statExecutedInstType::SimdAddAcc            0      0.00%     68.17% # Class of executed instruction. (Count)
system.cpu.exec_context.thread_0.statExecutedInstType::SimdAlu         1553      0.00%     68.17% # Class of executed instruction. (Count)
system.cpu.exec_context.thread_0.statExecutedInstType::SimdCmp            6      0.00%     68.17% # Class of executed instruction. (Count)
system.cpu.exec_context.thread_0.statExecutedInstType::SimdCvt         1210      0.00%     68.17% # Class of executed instruction. (Count)
system.cpu.exec_context.thread_0.statExecutedInstType::SimdMisc         1561      0.00%     68.17% # Class of executed instruction. (Count)
system.cpu.exec_context.thread_0.statExecutedInstType::SimdMult            0      0.00%     68.17% # Class of executed instruction. (Count)
system.cpu.exec_context.thread_0.statExecutedInstType::SimdMultAcc            0      0.00%     68.17% # Class of executed instruction. (Count)
system.cpu.exec_context.thread_0.statExecutedInstType::SimdShift           99      0.00%     68.17% # Class of executed instruction. (Count)
system.cpu.exec_context.thread_0.statExecutedInstType::SimdShiftAcc            0      0.00%     68.17% # Class of executed instruction. (Count)
system.cpu.exec_context.thread_0.statExecutedInstType::SimdDiv            0      0.00%     68.17% # Class of executed instruction. (Count)
system.cpu.exec_context.thread_0.statExecutedInstType::SimdSqrt            0      0.00%     68.17% # Class of executed instruction. (Count)
system.cpu.exec_context.thread_0.statExecutedInstType::SimdFloatAdd     13000126      6.36%     74.53% # Class of executed instruction. (Count)
system.cpu.exec_context.thread_0.statExecutedInstType::SimdFloatAlu            0      0.00%     74.53% # Class of executed instruction. (Count)
system.cpu.exec_context.thread_0.statExecutedInstType::SimdFloatCmp           16      0.00%     74.53% # Class of executed instruction. (Count)
system.cpu.exec_context.thread_0.statExecutedInstType::SimdFloatCvt      3000222      1.47%     76.00% # Class of executed instruction. (Count)
system.cpu.exec_context.thread_0.statExecutedInstType::SimdFloatDiv           11      0.00%     76.00% # Class of executed instruction. (Count)
system.cpu.exec_context.thread_0.statExecutedInstType::SimdFloatMisc            0      0.00%     76.00% # Class of executed instruction. (Count)
system.cpu.exec_context.thread_0.statExecutedInstType::SimdFloatMult      6000094      2.93%     78.93% # Class of executed instruction. (Count)
system.cpu.exec_context.thread_0.statExecutedInstType::SimdFloatMultAcc            0      0.00%     78.93% # Class of executed instruction. (Count)
system.cpu.exec_context.thread_0.statExecutedInstType::SimdFloatSqrt            0      0.00%     78.93% # Class of executed instruction. (Count)
system.cpu.exec_context.thread_0.statExecutedInstType::SimdReduceAdd            0      0.00%     78.93% # Class of executed instruction. (Count)
system.cpu.exec_context.thread_0.statExecutedInstType::SimdReduceAlu            0      0.00%     78.93% # Class of executed instruction. (Count)
system.cpu.exec_context.thread_0.statExecutedInstType::SimdReduceCmp            0      0.00%     78.93% # Class of executed instruction. (Count)
system.cpu.exec_context.thread_0.statExecutedInstType::SimdFloatReduceAdd            0      0.00%     78.93% # Class of executed instruction. (Count)
system.cpu.exec_context.thread_0.statExecutedInstType::SimdFloatReduceCmp            0      0.00%     78.93% # Class of executed instruction. (Count)
system.cpu.exec_context.thread_0.statExecutedInstType::SimdAes            0      0.00%     78.93% # Class of executed instruction. (Count)
system.cpu.exec_context.thread_0.statExecutedInstType::SimdAesMix            0      0.00%     78.93% # Class of executed instruction. (Count)
system.cpu.exec_context.thread_0.statExecutedInstType::SimdSha1Hash            0      0.00%     78.93% # Class of executed instruction. (Count)
system.cpu.exec_context.thread_0.statExecutedInstType::SimdSha1Hash2            0      0.00%     78.93% # Class of executed instruction. (Count)
system.cpu.exec_context.thread_0.statExecutedInstType::SimdSha256Hash            0      0.00%     78.93% # Class of executed instruction. (Count)
system.cpu.exec_context.thread_0.statExecutedInstType::SimdSha256Hash2            0      0.00%     78.93% # Class of executed instruction. (Count)
system.cpu.exec_context.thread_0.statExecutedInstType::SimdShaSigma2            0      0.00%     78.93% # Class of executed instruction. (Count)
system.cpu.exec_context.thread_0.statExecutedInstType::SimdShaSigma3            0      0.00%     78.93% # Class of executed instruction. (Count)
system.cpu.exec_context.thread_0.statExecutedInstType::SimdPredAlu            0      0.00%     78.93% # Class of executed instruction. (Count)
system.cpu.exec_context.thread_0.statExecutedInstType::MemRead        52227      0.03%     78.96% # Class of executed instruction. (Count)
system.cpu.exec_context.thread_0.statExecutedInstType::MemWrite      1018992      0.50%     79.45% # Class of executed instruction. (Count)
system.cpu.exec_context.thread_0.statExecutedInstType::FloatMemRead     27001921     13.21%     92.66% # Class of executed instruction. (Count)
system.cpu.exec_context.thread_0.statExecutedInstType::FloatMemWrite     15001608      7.34%    100.00% # Class of executed instruction. (Count)
system.cpu.exec_context.thread_0.statExecutedInstType::IprAccess            0      0.00%    100.00% # Class of executed instruction. (Count)
system.cpu.exec_context.thread_0.statExecutedInstType::InstPrefetch            0      0.00%    100.00% # Class of executed instruction. (Count)
system.cpu.exec_context.thread_0.statExecutedInstType::total    204442162                       # Class of executed instruction. (Count)
system.cpu.interrupts.clk_domain.clock           4000                       # Clock period in ticks (Tick)
system.cpu.mmu.dtb.rdAccesses                27054193                       # TLB accesses on read requests (Count)
system.cpu.mmu.dtb.wrAccesses                16020622                       # TLB accesses on write requests (Count)
system.cpu.mmu.dtb.rdMisses                     43220                       # TLB misses on read requests (Count)
system.cpu.mmu.dtb.wrMisses                     29353                       # TLB misses on write requests (Count)
system.cpu.mmu.dtb.walker.power_state.pwrStateResidencyTicks::UNDEFINED 11872248773000                       # Cumulative time (in ticks) in various power states (Tick)
system.cpu.mmu.itb.rdAccesses                       0                       # TLB accesses on read requests (Count)
system.cpu.mmu.itb.wrAccesses               149310040                       # TLB accesses on write requests (Count)
system.cpu.mmu.itb.rdMisses                         0                       # TLB misses on read requests (Count)
system.cpu.mmu.itb.wrMisses                       175                       # TLB misses on write requests (Count)
system.cpu.mmu.itb.walker.power_state.pwrStateResidencyTicks::UNDEFINED 11872248773000                       # Cumulative time (in ticks) in various power states (Tick)
system.cpu.power_state.pwrStateResidencyTicks::ON 11872248773000                       # Cumulative time (in ticks) in various power states (Tick)
system.cpu.thread_0.numInsts                        0                       # Number of Instructions committed (Count)
system.cpu.thread_0.numOps                          0                       # Number of Ops committed (Count)
system.cpu.thread_0.numMemRefs                      0                       # Number of Memory References (Count)
system.cpu.workload.numSyscalls                   129                       # Number of system calls (Count)
system.cpu_clk_domain.clock                       250                       # Clock period in ticks (Tick)
system.cpu_voltage_domain.voltage                   1                       # Voltage in Volts (Volt)
system.mem_ctrls0.avgPriority_cpu.inst::samples  18091383.00                       # Average QoS priority value for accepted requests (Count)
system.mem_ctrls0.avgPriority_cpu.data::samples   6526654.00                       # Average QoS priority value for accepted requests (Count)
system.mem_ctrls0.priorityMinLatency     0.000000020000                       # per QoS priority minimum request to response latency (Second)
system.mem_ctrls0.priorityMaxLatency     2.027929851000                       # per QoS priority maximum request to response latency (Second)
system.mem_ctrls0.numReadWriteTurnArounds        56138                       # Number of turnarounds from READ to WRITE (Count)
system.mem_ctrls0.numWriteReadTurnArounds        56138                       # Number of turnarounds from WRITE to READ (Count)
system.mem_ctrls0.numStayReadState           54275715                       # Number of times bus staying in READ state (Count)
system.mem_ctrls0.numStayWriteState            954783                       # Number of times bus staying in WRITE state (Count)
system.mem_ctrls0.readReqs                   23608936                       # Number of read requests accepted (Count)
system.mem_ctrls0.writeReqs                   4005992                       # Number of write requests accepted (Count)
system.mem_ctrls0.readBursts                 23608954                       # Number of controller read bursts, including those serviced by the write queue (Count)
system.mem_ctrls0.writeBursts                 4005992                       # Number of controller write bursts, including those merged in the write queue (Count)
system.mem_ctrls0.servicedByWrQ                  1430                       # Number of controller read bursts serviced by the write queue (Count)
system.mem_ctrls0.mergedWrBursts              2995479                       # Number of controller write bursts merged with an existing one (Count)
system.mem_ctrls0.neitherReadNorWriteReqs            0                       # Number of requests that are neither read nor write (Count)
system.mem_ctrls0.avgRdQLen                      1.00                       # Average read queue length when enqueuing ((Count/Tick))
system.mem_ctrls0.avgWrQLen                     24.10                       # Average write queue length when enqueuing ((Count/Tick))
system.mem_ctrls0.numRdRetry                        0                       # Number of times read queue was full causing retry (Count)
system.mem_ctrls0.numWrRetry                        0                       # Number of times write queue was full causing retry (Count)
system.mem_ctrls0.readPktSize::0                 3468                       # Read request sizes (log2) (Count)
system.mem_ctrls0.readPktSize::1                  750                       # Read request sizes (log2) (Count)
system.mem_ctrls0.readPktSize::2                 1776                       # Read request sizes (log2) (Count)
system.mem_ctrls0.readPktSize::3             23602960                       # Read request sizes (log2) (Count)
system.mem_ctrls0.readPktSize::4                    0                       # Read request sizes (log2) (Count)
system.mem_ctrls0.readPktSize::5                    0                       # Read request sizes (log2) (Count)
system.mem_ctrls0.readPktSize::6                    0                       # Read request sizes (log2) (Count)
system.mem_ctrls0.writePktSize::0                 173                       # Write request sizes (log2) (Count)
system.mem_ctrls0.writePktSize::1                  30                       # Write request sizes (log2) (Count)
system.mem_ctrls0.writePktSize::2                 453                       # Write request sizes (log2) (Count)
system.mem_ctrls0.writePktSize::3             4005336                       # Write request sizes (log2) (Count)
system.mem_ctrls0.writePktSize::4                   0                       # Write request sizes (log2) (Count)
system.mem_ctrls0.writePktSize::5                   0                       # Write request sizes (log2) (Count)
system.mem_ctrls0.writePktSize::6                   0                       # Write request sizes (log2) (Count)
system.mem_ctrls0.rdQLenPdf::0               23607506                       # What read queue length does an incoming req see (Count)
system.mem_ctrls0.rdQLenPdf::1                     18                       # What read queue length does an incoming req see (Count)
system.mem_ctrls0.rdQLenPdf::2                      0                       # What read queue length does an incoming req see (Count)
system.mem_ctrls0.rdQLenPdf::3                      0                       # What read queue length does an incoming req see (Count)
system.mem_ctrls0.rdQLenPdf::4                      0                       # What read queue length does an incoming req see (Count)
system.mem_ctrls0.rdQLenPdf::5                      0                       # What read queue length does an incoming req see (Count)
system.mem_ctrls0.rdQLenPdf::6                      0                       # What read queue length does an incoming req see (Count)
system.mem_ctrls0.rdQLenPdf::7                      0                       # What read queue length does an incoming req see (Count)
system.mem_ctrls0.rdQLenPdf::8                      0                       # What read queue length does an incoming req see (Count)
system.mem_ctrls0.rdQLenPdf::9                      0                       # What read queue length does an incoming req see (Count)
system.mem_ctrls0.rdQLenPdf::10                     0                       # What read queue length does an incoming req see (Count)
system.mem_ctrls0.rdQLenPdf::11                     0                       # What read queue length does an incoming req see (Count)
system.mem_ctrls0.rdQLenPdf::12                     0                       # What read queue length does an incoming req see (Count)
system.mem_ctrls0.rdQLenPdf::13                     0                       # What read queue length does an incoming req see (Count)
system.mem_ctrls0.rdQLenPdf::14                     0                       # What read queue length does an incoming req see (Count)
system.mem_ctrls0.rdQLenPdf::15                     0                       # What read queue length does an incoming req see (Count)
system.mem_ctrls0.rdQLenPdf::16                     0                       # What read queue length does an incoming req see (Count)
system.mem_ctrls0.rdQLenPdf::17                     0                       # What read queue length does an incoming req see (Count)
system.mem_ctrls0.rdQLenPdf::18                     0                       # What read queue length does an incoming req see (Count)
system.mem_ctrls0.rdQLenPdf::19                     0                       # What read queue length does an incoming req see (Count)
system.mem_ctrls0.rdQLenPdf::20                     0                       # What read queue length does an incoming req see (Count)
system.mem_ctrls0.rdQLenPdf::21                     0                       # What read queue length does an incoming req see (Count)
system.mem_ctrls0.rdQLenPdf::22                     0                       # What read queue length does an incoming req see (Count)
system.mem_ctrls0.rdQLenPdf::23                     0                       # What read queue length does an incoming req see (Count)
system.mem_ctrls0.rdQLenPdf::24                     0                       # What read queue length does an incoming req see (Count)
system.mem_ctrls0.rdQLenPdf::25                     0                       # What read queue length does an incoming req see (Count)
system.mem_ctrls0.rdQLenPdf::26                     0                       # What read queue length does an incoming req see (Count)
system.mem_ctrls0.rdQLenPdf::27                     0                       # What read queue length does an incoming req see (Count)
system.mem_ctrls0.rdQLenPdf::28                     0                       # What read queue length does an incoming req see (Count)
system.mem_ctrls0.rdQLenPdf::29                     0                       # What read queue length does an incoming req see (Count)
system.mem_ctrls0.rdQLenPdf::30                     0                       # What read queue length does an incoming req see (Count)
system.mem_ctrls0.rdQLenPdf::31                     0                       # What read queue length does an incoming req see (Count)
system.mem_ctrls0.rdQLenPdf::32                     0                       # What read queue length does an incoming req see (Count)
system.mem_ctrls0.rdQLenPdf::33                     0                       # What read queue length does an incoming req see (Count)
system.mem_ctrls0.rdQLenPdf::34                     0                       # What read queue length does an incoming req see (Count)
system.mem_ctrls0.rdQLenPdf::35                     0                       # What read queue length does an incoming req see (Count)
system.mem_ctrls0.rdQLenPdf::36                     0                       # What read queue length does an incoming req see (Count)
system.mem_ctrls0.rdQLenPdf::37                     0                       # What read queue length does an incoming req see (Count)
system.mem_ctrls0.rdQLenPdf::38                     0                       # What read queue length does an incoming req see (Count)
system.mem_ctrls0.rdQLenPdf::39                     0                       # What read queue length does an incoming req see (Count)
system.mem_ctrls0.rdQLenPdf::40                     0                       # What read queue length does an incoming req see (Count)
system.mem_ctrls0.rdQLenPdf::41                     0                       # What read queue length does an incoming req see (Count)
system.mem_ctrls0.rdQLenPdf::42                     0                       # What read queue length does an incoming req see (Count)
system.mem_ctrls0.rdQLenPdf::43                     0                       # What read queue length does an incoming req see (Count)
system.mem_ctrls0.rdQLenPdf::44                     0                       # What read queue length does an incoming req see (Count)
system.mem_ctrls0.rdQLenPdf::45                     0                       # What read queue length does an incoming req see (Count)
system.mem_ctrls0.rdQLenPdf::46                     0                       # What read queue length does an incoming req see (Count)
system.mem_ctrls0.rdQLenPdf::47                     0                       # What read queue length does an incoming req see (Count)
system.mem_ctrls0.rdQLenPdf::48                     0                       # What read queue length does an incoming req see (Count)
system.mem_ctrls0.rdQLenPdf::49                     0                       # What read queue length does an incoming req see (Count)
system.mem_ctrls0.rdQLenPdf::50                     0                       # What read queue length does an incoming req see (Count)
system.mem_ctrls0.rdQLenPdf::51                     0                       # What read queue length does an incoming req see (Count)
system.mem_ctrls0.rdQLenPdf::52                     0                       # What read queue length does an incoming req see (Count)
system.mem_ctrls0.rdQLenPdf::53                     0                       # What read queue length does an incoming req see (Count)
system.mem_ctrls0.rdQLenPdf::54                     0                       # What read queue length does an incoming req see (Count)
system.mem_ctrls0.rdQLenPdf::55                     0                       # What read queue length does an incoming req see (Count)
system.mem_ctrls0.rdQLenPdf::56                     0                       # What read queue length does an incoming req see (Count)
system.mem_ctrls0.rdQLenPdf::57                     0                       # What read queue length does an incoming req see (Count)
system.mem_ctrls0.rdQLenPdf::58                     0                       # What read queue length does an incoming req see (Count)
system.mem_ctrls0.rdQLenPdf::59                     0                       # What read queue length does an incoming req see (Count)
system.mem_ctrls0.rdQLenPdf::60                     0                       # What read queue length does an incoming req see (Count)
system.mem_ctrls0.rdQLenPdf::61                     0                       # What read queue length does an incoming req see (Count)
system.mem_ctrls0.rdQLenPdf::62                     0                       # What read queue length does an incoming req see (Count)
system.mem_ctrls0.rdQLenPdf::63                     0                       # What read queue length does an incoming req see (Count)
system.mem_ctrls0.wrQLenPdf::0                      1                       # What write queue length does an incoming req see (Count)
system.mem_ctrls0.wrQLenPdf::1                      1                       # What write queue length does an incoming req see (Count)
system.mem_ctrls0.wrQLenPdf::2                      1                       # What write queue length does an incoming req see (Count)
system.mem_ctrls0.wrQLenPdf::3                      1                       # What write queue length does an incoming req see (Count)
system.mem_ctrls0.wrQLenPdf::4                      1                       # What write queue length does an incoming req see (Count)
system.mem_ctrls0.wrQLenPdf::5                      1                       # What write queue length does an incoming req see (Count)
system.mem_ctrls0.wrQLenPdf::6                      1                       # What write queue length does an incoming req see (Count)
system.mem_ctrls0.wrQLenPdf::7                      1                       # What write queue length does an incoming req see (Count)
system.mem_ctrls0.wrQLenPdf::8                      1                       # What write queue length does an incoming req see (Count)
system.mem_ctrls0.wrQLenPdf::9                      1                       # What write queue length does an incoming req see (Count)
system.mem_ctrls0.wrQLenPdf::10                     1                       # What write queue length does an incoming req see (Count)
system.mem_ctrls0.wrQLenPdf::11                     1                       # What write queue length does an incoming req see (Count)
system.mem_ctrls0.wrQLenPdf::12                     1                       # What write queue length does an incoming req see (Count)
system.mem_ctrls0.wrQLenPdf::13                     1                       # What write queue length does an incoming req see (Count)
system.mem_ctrls0.wrQLenPdf::14                     1                       # What write queue length does an incoming req see (Count)
system.mem_ctrls0.wrQLenPdf::15                 56138                       # What write queue length does an incoming req see (Count)
system.mem_ctrls0.wrQLenPdf::16                 56139                       # What write queue length does an incoming req see (Count)
system.mem_ctrls0.wrQLenPdf::17                 56139                       # What write queue length does an incoming req see (Count)
system.mem_ctrls0.wrQLenPdf::18                 56139                       # What write queue length does an incoming req see (Count)
system.mem_ctrls0.wrQLenPdf::19                 56139                       # What write queue length does an incoming req see (Count)
system.mem_ctrls0.wrQLenPdf::20                 56139                       # What write queue length does an incoming req see (Count)
system.mem_ctrls0.wrQLenPdf::21                 56139                       # What write queue length does an incoming req see (Count)
system.mem_ctrls0.wrQLenPdf::22                 56139                       # What write queue length does an incoming req see (Count)
system.mem_ctrls0.wrQLenPdf::23                 56139                       # What write queue length does an incoming req see (Count)
system.mem_ctrls0.wrQLenPdf::24                 56139                       # What write queue length does an incoming req see (Count)
system.mem_ctrls0.wrQLenPdf::25                 56139                       # What write queue length does an incoming req see (Count)
system.mem_ctrls0.wrQLenPdf::26                 56139                       # What write queue length does an incoming req see (Count)
system.mem_ctrls0.wrQLenPdf::27                 56139                       # What write queue length does an incoming req see (Count)
system.mem_ctrls0.wrQLenPdf::28                 56139                       # What write queue length does an incoming req see (Count)
system.mem_ctrls0.wrQLenPdf::29                 56139                       # What write queue length does an incoming req see (Count)
system.mem_ctrls0.wrQLenPdf::30                 56138                       # What write queue length does an incoming req see (Count)
system.mem_ctrls0.wrQLenPdf::31                 56138                       # What write queue length does an incoming req see (Count)
system.mem_ctrls0.wrQLenPdf::32                 56138                       # What write queue length does an incoming req see (Count)
system.mem_ctrls0.wrQLenPdf::33                     0                       # What write queue length does an incoming req see (Count)
system.mem_ctrls0.wrQLenPdf::34                     0                       # What write queue length does an incoming req see (Count)
system.mem_ctrls0.wrQLenPdf::35                     0                       # What write queue length does an incoming req see (Count)
system.mem_ctrls0.wrQLenPdf::36                     0                       # What write queue length does an incoming req see (Count)
system.mem_ctrls0.wrQLenPdf::37                     0                       # What write queue length does an incoming req see (Count)
system.mem_ctrls0.wrQLenPdf::38                     0                       # What write queue length does an incoming req see (Count)
system.mem_ctrls0.wrQLenPdf::39                     0                       # What write queue length does an incoming req see (Count)
system.mem_ctrls0.wrQLenPdf::40                     0                       # What write queue length does an incoming req see (Count)
system.mem_ctrls0.wrQLenPdf::41                     0                       # What write queue length does an incoming req see (Count)
system.mem_ctrls0.wrQLenPdf::42                     0                       # What write queue length does an incoming req see (Count)
system.mem_ctrls0.wrQLenPdf::43                     0                       # What write queue length does an incoming req see (Count)
system.mem_ctrls0.wrQLenPdf::44                     0                       # What write queue length does an incoming req see (Count)
system.mem_ctrls0.wrQLenPdf::45                     0                       # What write queue length does an incoming req see (Count)
system.mem_ctrls0.wrQLenPdf::46                     0                       # What write queue length does an incoming req see (Count)
system.mem_ctrls0.wrQLenPdf::47                     0                       # What write queue length does an incoming req see (Count)
system.mem_ctrls0.wrQLenPdf::48                     0                       # What write queue length does an incoming req see (Count)
system.mem_ctrls0.wrQLenPdf::49                     0                       # What write queue length does an incoming req see (Count)
system.mem_ctrls0.wrQLenPdf::50                     0                       # What write queue length does an incoming req see (Count)
system.mem_ctrls0.wrQLenPdf::51                     0                       # What write queue length does an incoming req see (Count)
system.mem_ctrls0.wrQLenPdf::52                     0                       # What write queue length does an incoming req see (Count)
system.mem_ctrls0.wrQLenPdf::53                     0                       # What write queue length does an incoming req see (Count)
system.mem_ctrls0.wrQLenPdf::54                     0                       # What write queue length does an incoming req see (Count)
system.mem_ctrls0.wrQLenPdf::55                     0                       # What write queue length does an incoming req see (Count)
system.mem_ctrls0.wrQLenPdf::56                     0                       # What write queue length does an incoming req see (Count)
system.mem_ctrls0.wrQLenPdf::57                     0                       # What write queue length does an incoming req see (Count)
system.mem_ctrls0.wrQLenPdf::58                     0                       # What write queue length does an incoming req see (Count)
system.mem_ctrls0.wrQLenPdf::59                     0                       # What write queue length does an incoming req see (Count)
system.mem_ctrls0.wrQLenPdf::60                     0                       # What write queue length does an incoming req see (Count)
system.mem_ctrls0.wrQLenPdf::61                     0                       # What write queue length does an incoming req see (Count)
system.mem_ctrls0.wrQLenPdf::62                     0                       # What write queue length does an incoming req see (Count)
system.mem_ctrls0.wrQLenPdf::63                     0                       # What write queue length does an incoming req see (Count)
system.mem_ctrls0.rdPerTurnAround::samples        56138                       # Reads before turning the bus around for writes (Count)
system.mem_ctrls0.rdPerTurnAround::mean    406.851633                       # Reads before turning the bus around for writes (Count)
system.mem_ctrls0.rdPerTurnAround::stdev   712.221702                       # Reads before turning the bus around for writes (Count)
system.mem_ctrls0.rdPerTurnAround::0-511        45570     81.17%     81.17% # Reads before turning the bus around for writes (Count)
system.mem_ctrls0.rdPerTurnAround::512-1023            8      0.01%     81.19% # Reads before turning the bus around for writes (Count)
system.mem_ctrls0.rdPerTurnAround::1024-1535            3      0.01%     81.19% # Reads before turning the bus around for writes (Count)
system.mem_ctrls0.rdPerTurnAround::1536-2047        10547     18.79%     99.98% # Reads before turning the bus around for writes (Count)
system.mem_ctrls0.rdPerTurnAround::2048-2559            2      0.00%     99.99% # Reads before turning the bus around for writes (Count)
system.mem_ctrls0.rdPerTurnAround::2560-3071            3      0.01%     99.99% # Reads before turning the bus around for writes (Count)
system.mem_ctrls0.rdPerTurnAround::3584-4095            1      0.00%     99.99% # Reads before turning the bus around for writes (Count)
system.mem_ctrls0.rdPerTurnAround::6144-6655            1      0.00%     99.99% # Reads before turning the bus around for writes (Count)
system.mem_ctrls0.rdPerTurnAround::8192-8703            1      0.00%    100.00% # Reads before turning the bus around for writes (Count)
system.mem_ctrls0.rdPerTurnAround::17408-17919            1      0.00%    100.00% # Reads before turning the bus around for writes (Count)
system.mem_ctrls0.rdPerTurnAround::29184-29695            1      0.00%    100.00% # Reads before turning the bus around for writes (Count)
system.mem_ctrls0.rdPerTurnAround::total        56138                       # Reads before turning the bus around for writes (Count)
system.mem_ctrls0.wrPerTurnAround::samples        56138                       # Writes before turning the bus around for reads (Count)
system.mem_ctrls0.wrPerTurnAround::mean     17.999982                       # Writes before turning the bus around for reads (Count)
system.mem_ctrls0.wrPerTurnAround::gmean    17.999982                       # Writes before turning the bus around for reads (Count)
system.mem_ctrls0.wrPerTurnAround::stdev     0.004221                       # Writes before turning the bus around for reads (Count)
system.mem_ctrls0.wrPerTurnAround::17               1      0.00%      0.00% # Writes before turning the bus around for reads (Count)
system.mem_ctrls0.wrPerTurnAround::18           56137    100.00%    100.00% # Writes before turning the bus around for reads (Count)
system.mem_ctrls0.wrPerTurnAround::total        56138                       # Writes before turning the bus around for reads (Count)
system.mem_ctrls0.bytesReadWrQ                  45760                       # Total number of bytes read from write queue (Byte)
system.mem_ctrls0.bytesReadSys              188835687                       # Total read bytes from the system interface side (Byte)
system.mem_ctrls0.bytesWrittenSys            32044733                       # Total written bytes from the system interface side (Byte)
system.mem_ctrls0.avgRdBWSys             15905637.64376739                       # Average system read bandwidth in Byte/s ((Byte/Second))
system.mem_ctrls0.avgWrBWSys             2699129.17196247                       # Average system write bandwidth in Byte/s ((Byte/Second))
system.mem_ctrls0.totGap                 11872248449000                       # Total gap between requests (Tick)
system.mem_ctrls0.avgGap                    429921.40                       # Average gap between requests ((Tick/Count))
system.mem_ctrls0.requestorReadBytes::cpu.inst    144731064                       # Per-requestor bytes read from memory (Byte)
system.mem_ctrls0.requestorReadBytes::cpu.data     44094662                       # Per-requestor bytes read from memory (Byte)
system.mem_ctrls0.requestorWriteBytes::cpu.data      8083706                       # Per-requestor bytes write to memory (Byte)
system.mem_ctrls0.requestorReadRate::cpu.inst 12190703.443575827405                       # Per-requestor bytes read from memory rate ((Byte/Second))
system.mem_ctrls0.requestorReadRate::cpu.data 3714095.184753925074                       # Per-requestor bytes read from memory rate ((Byte/Second))
system.mem_ctrls0.requestorWriteRate::cpu.data 680890.887190980488                       # Per-requestor bytes write to memory rate ((Byte/Second))
system.mem_ctrls0.requestorReadAccesses::cpu.inst     18091383                       # Per-requestor read serviced memory accesses (Count)
system.mem_ctrls0.requestorReadAccesses::cpu.data      5517571                       # Per-requestor read serviced memory accesses (Count)
system.mem_ctrls0.requestorWriteAccesses::cpu.data      4005992                       # Per-requestor write serviced memory accesses (Count)
system.mem_ctrls0.requestorReadTotalLat::cpu.inst 639173234000                       # Per-requestor read total memory access latency (Tick)
system.mem_ctrls0.requestorReadTotalLat::cpu.data 193517997000                       # Per-requestor read total memory access latency (Tick)
system.mem_ctrls0.requestorWriteTotalLat::cpu.data 234186018625000                       # Per-requestor write total memory access latency (Tick)
system.mem_ctrls0.requestorReadAvgLat::cpu.inst     35330.26                       # Per-requestor read average memory access latency ((Tick/Count))
system.mem_ctrls0.requestorReadAvgLat::cpu.data     35073.04                       # Per-requestor read average memory access latency ((Tick/Count))
system.mem_ctrls0.requestorWriteAvgLat::cpu.data  58458933.17                       # Per-requestor write average memory access latency ((Tick/Count))
system.mem_ctrls0.dram.bytesRead::cpu.inst    144731064                       # Number of bytes read from this memory (Byte)
system.mem_ctrls0.dram.bytesRead::cpu.data     44104623                       # Number of bytes read from this memory (Byte)
system.mem_ctrls0.dram.bytesRead::total     188835687                       # Number of bytes read from this memory (Byte)
system.mem_ctrls0.dram.bytesInstRead::cpu.inst    144731064                       # Number of instructions bytes read from this memory (Byte)
system.mem_ctrls0.dram.bytesInstRead::total    144731064                       # Number of instructions bytes read from this memory (Byte)
system.mem_ctrls0.dram.bytesWritten::cpu.data     32044733                       # Number of bytes written to this memory (Byte)
system.mem_ctrls0.dram.bytesWritten::total     32044733                       # Number of bytes written to this memory (Byte)
system.mem_ctrls0.dram.numReads::cpu.inst     18091383                       # Number of read requests responded to by this memory (Count)
system.mem_ctrls0.dram.numReads::cpu.data      5517553                       # Number of read requests responded to by this memory (Count)
system.mem_ctrls0.dram.numReads::total       23608936                       # Number of read requests responded to by this memory (Count)
system.mem_ctrls0.dram.numWrites::cpu.data      4005992                       # Number of write requests responded to by this memory (Count)
system.mem_ctrls0.dram.numWrites::total       4005992                       # Number of write requests responded to by this memory (Count)
system.mem_ctrls0.dram.bwRead::cpu.inst      12190703                       # Total read bandwidth from this memory ((Byte/Second))
system.mem_ctrls0.dram.bwRead::cpu.data       3714934                       # Total read bandwidth from this memory ((Byte/Second))
system.mem_ctrls0.dram.bwRead::total         15905638                       # Total read bandwidth from this memory ((Byte/Second))
system.mem_ctrls0.dram.bwInstRead::cpu.inst     12190703                       # Instruction read bandwidth from this memory ((Byte/Second))
system.mem_ctrls0.dram.bwInstRead::total     12190703                       # Instruction read bandwidth from this memory ((Byte/Second))
system.mem_ctrls0.dram.bwWrite::cpu.data      2699129                       # Write bandwidth from this memory ((Byte/Second))
system.mem_ctrls0.dram.bwWrite::total         2699129                       # Write bandwidth from this memory ((Byte/Second))
system.mem_ctrls0.dram.bwTotal::cpu.inst     12190703                       # Total bandwidth to/from this memory ((Byte/Second))
system.mem_ctrls0.dram.bwTotal::cpu.data      6414063                       # Total bandwidth to/from this memory ((Byte/Second))
system.mem_ctrls0.dram.bwTotal::total        18604767                       # Total bandwidth to/from this memory ((Byte/Second))
system.mem_ctrls0.dram.readBursts            23607524                       # Number of DRAM read bursts (Count)
system.mem_ctrls0.dram.writeBursts            1010483                       # Number of DRAM write bursts (Count)
system.mem_ctrls0.dram.perBankRdBursts::0       350716                       # Per bank write bursts (Count)
system.mem_ctrls0.dram.perBankRdBursts::1     18344870                       # Per bank write bursts (Count)
system.mem_ctrls0.dram.perBankRdBursts::2       346086                       # Per bank write bursts (Count)
system.mem_ctrls0.dram.perBankRdBursts::3       349290                       # Per bank write bursts (Count)
system.mem_ctrls0.dram.perBankRdBursts::4       366633                       # Per bank write bursts (Count)
system.mem_ctrls0.dram.perBankRdBursts::5       350086                       # Per bank write bursts (Count)
system.mem_ctrls0.dram.perBankRdBursts::6       370009                       # Per bank write bursts (Count)
system.mem_ctrls0.dram.perBankRdBursts::7       352717                       # Per bank write bursts (Count)
system.mem_ctrls0.dram.perBankRdBursts::8       345212                       # Per bank write bursts (Count)
system.mem_ctrls0.dram.perBankRdBursts::9       344407                       # Per bank write bursts (Count)
system.mem_ctrls0.dram.perBankRdBursts::10       345241                       # Per bank write bursts (Count)
system.mem_ctrls0.dram.perBankRdBursts::11       347864                       # Per bank write bursts (Count)
system.mem_ctrls0.dram.perBankRdBursts::12       344498                       # Per bank write bursts (Count)
system.mem_ctrls0.dram.perBankRdBursts::13       345667                       # Per bank write bursts (Count)
system.mem_ctrls0.dram.perBankRdBursts::14       357702                       # Per bank write bursts (Count)
system.mem_ctrls0.dram.perBankRdBursts::15       346526                       # Per bank write bursts (Count)
system.mem_ctrls0.dram.perBankWrBursts::0        63123                       # Per bank write bursts (Count)
system.mem_ctrls0.dram.perBankWrBursts::1        63131                       # Per bank write bursts (Count)
system.mem_ctrls0.dram.perBankWrBursts::2        63125                       # Per bank write bursts (Count)
system.mem_ctrls0.dram.perBankWrBursts::3        63098                       # Per bank write bursts (Count)
system.mem_ctrls0.dram.perBankWrBursts::4        63329                       # Per bank write bursts (Count)
system.mem_ctrls0.dram.perBankWrBursts::5        63263                       # Per bank write bursts (Count)
system.mem_ctrls0.dram.perBankWrBursts::6        63291                       # Per bank write bursts (Count)
system.mem_ctrls0.dram.perBankWrBursts::7        63261                       # Per bank write bursts (Count)
system.mem_ctrls0.dram.perBankWrBursts::8        63113                       # Per bank write bursts (Count)
system.mem_ctrls0.dram.perBankWrBursts::9        63104                       # Per bank write bursts (Count)
system.mem_ctrls0.dram.perBankWrBursts::10        63125                       # Per bank write bursts (Count)
system.mem_ctrls0.dram.perBankWrBursts::11        63104                       # Per bank write bursts (Count)
system.mem_ctrls0.dram.perBankWrBursts::12        63098                       # Per bank write bursts (Count)
system.mem_ctrls0.dram.perBankWrBursts::13        63123                       # Per bank write bursts (Count)
system.mem_ctrls0.dram.perBankWrBursts::14        63098                       # Per bank write bursts (Count)
system.mem_ctrls0.dram.perBankWrBursts::15        63097                       # Per bank write bursts (Count)
system.mem_ctrls0.dram.totQLat           360540751000                       # Total ticks spent queuing (Tick)
system.mem_ctrls0.dram.totBusLat          47215048000                       # Total ticks spent in databus transfers (Tick)
system.mem_ctrls0.dram.totMemAccLat      832691231000                       # Total ticks spent from burst creation until serviced by the DRAM (Tick)
system.mem_ctrls0.dram.avgQLat               15272.28                       # Average queueing delay per DRAM burst ((Tick/Count))
system.mem_ctrls0.dram.avgBusLat              2000.00                       # Average bus latency per DRAM burst ((Tick/Count))
system.mem_ctrls0.dram.avgMemAccLat          35272.28                       # Average memory access latency per DRAM burst ((Tick/Count))
system.mem_ctrls0.dram.readRowHits               2334                       # Number of row buffer hits during reads (Count)
system.mem_ctrls0.dram.writeRowHits            867383                       # Number of row buffer hits during writes (Count)
system.mem_ctrls0.dram.readRowHitRate            0.01                       # Row buffer hit rate for reads (Ratio)
system.mem_ctrls0.dram.writeRowHitRate          85.84                       # Row buffer hit rate for writes (Ratio)
system.mem_ctrls0.dram.bytesPerActivate::samples     23748290                       # Bytes accessed per row activation (Byte)
system.mem_ctrls0.dram.bytesPerActivate::mean    33.171914                       # Bytes accessed per row activation (Byte)
system.mem_ctrls0.dram.bytesPerActivate::gmean    32.354698                       # Bytes accessed per row activation (Byte)
system.mem_ctrls0.dram.bytesPerActivate::stdev    16.446790                       # Bytes accessed per row activation (Byte)
system.mem_ctrls0.dram.bytesPerActivate::32-63     23613997     99.43%     99.43% # Bytes accessed per row activation (Byte)
system.mem_ctrls0.dram.bytesPerActivate::64-95         3494      0.01%     99.45% # Bytes accessed per row activation (Byte)
system.mem_ctrls0.dram.bytesPerActivate::96-127         7221      0.03%     99.48% # Bytes accessed per row activation (Byte)
system.mem_ctrls0.dram.bytesPerActivate::128-159         6327      0.03%     99.51% # Bytes accessed per row activation (Byte)
system.mem_ctrls0.dram.bytesPerActivate::160-191        17340      0.07%     99.58% # Bytes accessed per row activation (Byte)
system.mem_ctrls0.dram.bytesPerActivate::192-223         1382      0.01%     99.59% # Bytes accessed per row activation (Byte)
system.mem_ctrls0.dram.bytesPerActivate::224-255         7447      0.03%     99.62% # Bytes accessed per row activation (Byte)
system.mem_ctrls0.dram.bytesPerActivate::256-287        46050      0.19%     99.81% # Bytes accessed per row activation (Byte)
system.mem_ctrls0.dram.bytesPerActivate::288-319        15816      0.07%     99.88% # Bytes accessed per row activation (Byte)
system.mem_ctrls0.dram.bytesPerActivate::320-351        29204      0.12%    100.00% # Bytes accessed per row activation (Byte)
system.mem_ctrls0.dram.bytesPerActivate::352-383            8      0.00%    100.00% # Bytes accessed per row activation (Byte)
system.mem_ctrls0.dram.bytesPerActivate::448-479            2      0.00%    100.00% # Bytes accessed per row activation (Byte)
system.mem_ctrls0.dram.bytesPerActivate::480-511            2      0.00%    100.00% # Bytes accessed per row activation (Byte)
system.mem_ctrls0.dram.bytesPerActivate::total     23748290                       # Bytes accessed per row activation (Byte)
system.mem_ctrls0.dram.bytesRead            755440768                       # Total bytes read (Byte)
system.mem_ctrls0.dram.bytesWritten          32335456                       # Total bytes written (Byte)
system.mem_ctrls0.dram.avgRdBW              63.630807                       # Average DRAM read bandwidth in MiBytes/s ((Byte/Second))
system.mem_ctrls0.dram.avgWrBW               2.723617                       # Average DRAM write bandwidth in MiBytes/s ((Byte/Second))
system.mem_ctrls0.dram.peakBW                16000.00                       # Theoretical peak bandwidth in MiByte/s ((Byte/Second))
system.mem_ctrls0.dram.busUtil                   0.41                       # Data bus utilization in percentage (Ratio)
system.mem_ctrls0.dram.busUtilRead               0.40                       # Data bus utilization in percentage for reads (Ratio)
system.mem_ctrls0.dram.busUtilWrite              0.02                       # Data bus utilization in percentage for writes (Ratio)
system.mem_ctrls0.dram.pageHitRate               3.53                       # Row buffer hit rate, read and write combined (Ratio)
system.mem_ctrls0.dram.power_state.pwrStateResidencyTicks::UNDEFINED 11872248773000                       # Cumulative time (in ticks) in various power states (Tick)
system.mem_ctrls0.dram.rank0.actEnergy              0                       # Energy for activate commands per rank (pJ) (Joule)
system.mem_ctrls0.dram.rank0.preEnergy              0                       # Energy for precharge commands per rank (pJ) (Joule)
system.mem_ctrls0.dram.rank0.readEnergy             0                       # Energy for read commands per rank (pJ) (Joule)
system.mem_ctrls0.dram.rank0.writeEnergy            0                       # Energy for write commands per rank (pJ) (Joule)
system.mem_ctrls0.dram.rank0.refreshEnergy            0                       # Energy for refresh commands per rank (pJ) (Joule)
system.mem_ctrls0.dram.rank0.actBackEnergy            0                       # Energy for active background per rank (pJ) (Joule)
system.mem_ctrls0.dram.rank0.preBackEnergy            0                       # Energy for precharge background per rank (pJ) (Joule)
system.mem_ctrls0.dram.rank0.actPowerDownEnergy            0                       # Energy for active power-down per rank (pJ) (Joule)
system.mem_ctrls0.dram.rank0.prePowerDownEnergy            0                       # Energy for precharge power-down per rank (pJ) (Joule)
system.mem_ctrls0.dram.rank0.selfRefreshEnergy            0                       # Energy for self refresh per rank (pJ) (Joule)
system.mem_ctrls0.dram.rank0.totalEnergy            0                       # Total energy per rank (pJ) (Joule)
system.mem_ctrls0.dram.rank0.averagePower            0                       # Core power per rank (mW) (Watt)
system.mem_ctrls0.dram.rank0.totalIdleTime            0                       # Total Idle time Per DRAM Rank (Tick)
system.mem_ctrls0.dram.rank0.pwrStateTime::IDLE 10117900486000                       # Time in different power states (Tick)
system.mem_ctrls0.dram.rank0.pwrStateTime::REF 672129260000                       # Time in different power states (Tick)
system.mem_ctrls0.dram.rank0.pwrStateTime::SREF            0                       # Time in different power states (Tick)
system.mem_ctrls0.dram.rank0.pwrStateTime::PRE_PDN            0                       # Time in different power states (Tick)
system.mem_ctrls0.dram.rank0.pwrStateTime::ACT 1082219027000                       # Time in different power states (Tick)
system.mem_ctrls0.dram.rank0.pwrStateTime::ACT_PDN            0                       # Time in different power states (Tick)
system.mem_ctrls0.power_state.pwrStateResidencyTicks::UNDEFINED 11872248773000                       # Cumulative time (in ticks) in various power states (Tick)
system.mem_ctrls1.avgPriority_cpu.inst::samples  55071087.00                       # Average QoS priority value for accepted requests (Count)
system.mem_ctrls1.avgPriority_cpu.data::samples   7520419.00                       # Average QoS priority value for accepted requests (Count)
system.mem_ctrls1.priorityMinLatency     0.000000020000                       # per QoS priority minimum request to response latency (Second)
system.mem_ctrls1.priorityMaxLatency     0.017568885000                       # per QoS priority maximum request to response latency (Second)
system.mem_ctrls1.numReadWriteTurnArounds        56138                       # Number of turnarounds from READ to WRITE (Count)
system.mem_ctrls1.numWriteReadTurnArounds        56138                       # Number of turnarounds from WRITE to READ (Count)
system.mem_ctrls1.numStayReadState          130220943                       # Number of times bus staying in READ state (Count)
system.mem_ctrls1.numStayWriteState            954346                       # Number of times bus staying in WRITE state (Count)
system.mem_ctrls1.readReqs                   61582227                       # Number of read requests accepted (Count)
system.mem_ctrls1.writeReqs                   4003849                       # Number of write requests accepted (Count)
system.mem_ctrls1.readBursts                 61582244                       # Number of controller read bursts, including those serviced by the write queue (Count)
system.mem_ctrls1.writeBursts                 4003849                       # Number of controller write bursts, including those merged in the write queue (Count)
system.mem_ctrls1.servicedByWrQ                  1245                       # Number of controller read bursts serviced by the write queue (Count)
system.mem_ctrls1.mergedWrBursts              2993342                       # Number of controller write bursts merged with an existing one (Count)
system.mem_ctrls1.neitherReadNorWriteReqs            0                       # Number of requests that are neither read nor write (Count)
system.mem_ctrls1.avgRdQLen                      1.00                       # Average read queue length when enqueuing ((Count/Tick))
system.mem_ctrls1.avgWrQLen                     22.89                       # Average write queue length when enqueuing ((Count/Tick))
system.mem_ctrls1.numRdRetry                        0                       # Number of times read queue was full causing retry (Count)
system.mem_ctrls1.numWrRetry                        0                       # Number of times write queue was full causing retry (Count)
system.mem_ctrls1.readPktSize::0                 2144                       # Read request sizes (log2) (Count)
system.mem_ctrls1.readPktSize::1                  780                       # Read request sizes (log2) (Count)
system.mem_ctrls1.readPktSize::2                 2401                       # Read request sizes (log2) (Count)
system.mem_ctrls1.readPktSize::3             61576919                       # Read request sizes (log2) (Count)
system.mem_ctrls1.readPktSize::4                    0                       # Read request sizes (log2) (Count)
system.mem_ctrls1.readPktSize::5                    0                       # Read request sizes (log2) (Count)
system.mem_ctrls1.readPktSize::6                    0                       # Read request sizes (log2) (Count)
system.mem_ctrls1.writePktSize::0                  62                       # Write request sizes (log2) (Count)
system.mem_ctrls1.writePktSize::1                  20                       # Write request sizes (log2) (Count)
system.mem_ctrls1.writePktSize::2                 643                       # Write request sizes (log2) (Count)
system.mem_ctrls1.writePktSize::3             4003124                       # Write request sizes (log2) (Count)
system.mem_ctrls1.writePktSize::4                   0                       # Write request sizes (log2) (Count)
system.mem_ctrls1.writePktSize::5                   0                       # Write request sizes (log2) (Count)
system.mem_ctrls1.writePktSize::6                   0                       # Write request sizes (log2) (Count)
system.mem_ctrls1.rdQLenPdf::0               61580982                       # What read queue length does an incoming req see (Count)
system.mem_ctrls1.rdQLenPdf::1                     17                       # What read queue length does an incoming req see (Count)
system.mem_ctrls1.rdQLenPdf::2                      0                       # What read queue length does an incoming req see (Count)
system.mem_ctrls1.rdQLenPdf::3                      0                       # What read queue length does an incoming req see (Count)
system.mem_ctrls1.rdQLenPdf::4                      0                       # What read queue length does an incoming req see (Count)
system.mem_ctrls1.rdQLenPdf::5                      0                       # What read queue length does an incoming req see (Count)
system.mem_ctrls1.rdQLenPdf::6                      0                       # What read queue length does an incoming req see (Count)
system.mem_ctrls1.rdQLenPdf::7                      0                       # What read queue length does an incoming req see (Count)
system.mem_ctrls1.rdQLenPdf::8                      0                       # What read queue length does an incoming req see (Count)
system.mem_ctrls1.rdQLenPdf::9                      0                       # What read queue length does an incoming req see (Count)
system.mem_ctrls1.rdQLenPdf::10                     0                       # What read queue length does an incoming req see (Count)
system.mem_ctrls1.rdQLenPdf::11                     0                       # What read queue length does an incoming req see (Count)
system.mem_ctrls1.rdQLenPdf::12                     0                       # What read queue length does an incoming req see (Count)
system.mem_ctrls1.rdQLenPdf::13                     0                       # What read queue length does an incoming req see (Count)
system.mem_ctrls1.rdQLenPdf::14                     0                       # What read queue length does an incoming req see (Count)
system.mem_ctrls1.rdQLenPdf::15                     0                       # What read queue length does an incoming req see (Count)
system.mem_ctrls1.rdQLenPdf::16                     0                       # What read queue length does an incoming req see (Count)
system.mem_ctrls1.rdQLenPdf::17                     0                       # What read queue length does an incoming req see (Count)
system.mem_ctrls1.rdQLenPdf::18                     0                       # What read queue length does an incoming req see (Count)
system.mem_ctrls1.rdQLenPdf::19                     0                       # What read queue length does an incoming req see (Count)
system.mem_ctrls1.rdQLenPdf::20                     0                       # What read queue length does an incoming req see (Count)
system.mem_ctrls1.rdQLenPdf::21                     0                       # What read queue length does an incoming req see (Count)
system.mem_ctrls1.rdQLenPdf::22                     0                       # What read queue length does an incoming req see (Count)
system.mem_ctrls1.rdQLenPdf::23                     0                       # What read queue length does an incoming req see (Count)
system.mem_ctrls1.rdQLenPdf::24                     0                       # What read queue length does an incoming req see (Count)
system.mem_ctrls1.rdQLenPdf::25                     0                       # What read queue length does an incoming req see (Count)
system.mem_ctrls1.rdQLenPdf::26                     0                       # What read queue length does an incoming req see (Count)
system.mem_ctrls1.rdQLenPdf::27                     0                       # What read queue length does an incoming req see (Count)
system.mem_ctrls1.rdQLenPdf::28                     0                       # What read queue length does an incoming req see (Count)
system.mem_ctrls1.rdQLenPdf::29                     0                       # What read queue length does an incoming req see (Count)
system.mem_ctrls1.rdQLenPdf::30                     0                       # What read queue length does an incoming req see (Count)
system.mem_ctrls1.rdQLenPdf::31                     0                       # What read queue length does an incoming req see (Count)
system.mem_ctrls1.rdQLenPdf::32                     0                       # What read queue length does an incoming req see (Count)
system.mem_ctrls1.rdQLenPdf::33                     0                       # What read queue length does an incoming req see (Count)
system.mem_ctrls1.rdQLenPdf::34                     0                       # What read queue length does an incoming req see (Count)
system.mem_ctrls1.rdQLenPdf::35                     0                       # What read queue length does an incoming req see (Count)
system.mem_ctrls1.rdQLenPdf::36                     0                       # What read queue length does an incoming req see (Count)
system.mem_ctrls1.rdQLenPdf::37                     0                       # What read queue length does an incoming req see (Count)
system.mem_ctrls1.rdQLenPdf::38                     0                       # What read queue length does an incoming req see (Count)
system.mem_ctrls1.rdQLenPdf::39                     0                       # What read queue length does an incoming req see (Count)
system.mem_ctrls1.rdQLenPdf::40                     0                       # What read queue length does an incoming req see (Count)
system.mem_ctrls1.rdQLenPdf::41                     0                       # What read queue length does an incoming req see (Count)
system.mem_ctrls1.rdQLenPdf::42                     0                       # What read queue length does an incoming req see (Count)
system.mem_ctrls1.rdQLenPdf::43                     0                       # What read queue length does an incoming req see (Count)
system.mem_ctrls1.rdQLenPdf::44                     0                       # What read queue length does an incoming req see (Count)
system.mem_ctrls1.rdQLenPdf::45                     0                       # What read queue length does an incoming req see (Count)
system.mem_ctrls1.rdQLenPdf::46                     0                       # What read queue length does an incoming req see (Count)
system.mem_ctrls1.rdQLenPdf::47                     0                       # What read queue length does an incoming req see (Count)
system.mem_ctrls1.rdQLenPdf::48                     0                       # What read queue length does an incoming req see (Count)
system.mem_ctrls1.rdQLenPdf::49                     0                       # What read queue length does an incoming req see (Count)
system.mem_ctrls1.rdQLenPdf::50                     0                       # What read queue length does an incoming req see (Count)
system.mem_ctrls1.rdQLenPdf::51                     0                       # What read queue length does an incoming req see (Count)
system.mem_ctrls1.rdQLenPdf::52                     0                       # What read queue length does an incoming req see (Count)
system.mem_ctrls1.rdQLenPdf::53                     0                       # What read queue length does an incoming req see (Count)
system.mem_ctrls1.rdQLenPdf::54                     0                       # What read queue length does an incoming req see (Count)
system.mem_ctrls1.rdQLenPdf::55                     0                       # What read queue length does an incoming req see (Count)
system.mem_ctrls1.rdQLenPdf::56                     0                       # What read queue length does an incoming req see (Count)
system.mem_ctrls1.rdQLenPdf::57                     0                       # What read queue length does an incoming req see (Count)
system.mem_ctrls1.rdQLenPdf::58                     0                       # What read queue length does an incoming req see (Count)
system.mem_ctrls1.rdQLenPdf::59                     0                       # What read queue length does an incoming req see (Count)
system.mem_ctrls1.rdQLenPdf::60                     0                       # What read queue length does an incoming req see (Count)
system.mem_ctrls1.rdQLenPdf::61                     0                       # What read queue length does an incoming req see (Count)
system.mem_ctrls1.rdQLenPdf::62                     0                       # What read queue length does an incoming req see (Count)
system.mem_ctrls1.rdQLenPdf::63                     0                       # What read queue length does an incoming req see (Count)
system.mem_ctrls1.wrQLenPdf::0                      1                       # What write queue length does an incoming req see (Count)
system.mem_ctrls1.wrQLenPdf::1                      1                       # What write queue length does an incoming req see (Count)
system.mem_ctrls1.wrQLenPdf::2                      1                       # What write queue length does an incoming req see (Count)
system.mem_ctrls1.wrQLenPdf::3                      1                       # What write queue length does an incoming req see (Count)
system.mem_ctrls1.wrQLenPdf::4                      1                       # What write queue length does an incoming req see (Count)
system.mem_ctrls1.wrQLenPdf::5                      1                       # What write queue length does an incoming req see (Count)
system.mem_ctrls1.wrQLenPdf::6                      1                       # What write queue length does an incoming req see (Count)
system.mem_ctrls1.wrQLenPdf::7                      1                       # What write queue length does an incoming req see (Count)
system.mem_ctrls1.wrQLenPdf::8                      1                       # What write queue length does an incoming req see (Count)
system.mem_ctrls1.wrQLenPdf::9                      1                       # What write queue length does an incoming req see (Count)
system.mem_ctrls1.wrQLenPdf::10                     1                       # What write queue length does an incoming req see (Count)
system.mem_ctrls1.wrQLenPdf::11                     1                       # What write queue length does an incoming req see (Count)
system.mem_ctrls1.wrQLenPdf::12                     1                       # What write queue length does an incoming req see (Count)
system.mem_ctrls1.wrQLenPdf::13                     1                       # What write queue length does an incoming req see (Count)
system.mem_ctrls1.wrQLenPdf::14                     1                       # What write queue length does an incoming req see (Count)
system.mem_ctrls1.wrQLenPdf::15                 56137                       # What write queue length does an incoming req see (Count)
system.mem_ctrls1.wrQLenPdf::16                 56137                       # What write queue length does an incoming req see (Count)
system.mem_ctrls1.wrQLenPdf::17                 56139                       # What write queue length does an incoming req see (Count)
system.mem_ctrls1.wrQLenPdf::18                 56139                       # What write queue length does an incoming req see (Count)
system.mem_ctrls1.wrQLenPdf::19                 56139                       # What write queue length does an incoming req see (Count)
system.mem_ctrls1.wrQLenPdf::20                 56139                       # What write queue length does an incoming req see (Count)
system.mem_ctrls1.wrQLenPdf::21                 56139                       # What write queue length does an incoming req see (Count)
system.mem_ctrls1.wrQLenPdf::22                 56139                       # What write queue length does an incoming req see (Count)
system.mem_ctrls1.wrQLenPdf::23                 56139                       # What write queue length does an incoming req see (Count)
system.mem_ctrls1.wrQLenPdf::24                 56139                       # What write queue length does an incoming req see (Count)
system.mem_ctrls1.wrQLenPdf::25                 56139                       # What write queue length does an incoming req see (Count)
system.mem_ctrls1.wrQLenPdf::26                 56139                       # What write queue length does an incoming req see (Count)
system.mem_ctrls1.wrQLenPdf::27                 56138                       # What write queue length does an incoming req see (Count)
system.mem_ctrls1.wrQLenPdf::28                 56138                       # What write queue length does an incoming req see (Count)
system.mem_ctrls1.wrQLenPdf::29                 56138                       # What write queue length does an incoming req see (Count)
system.mem_ctrls1.wrQLenPdf::30                 56138                       # What write queue length does an incoming req see (Count)
system.mem_ctrls1.wrQLenPdf::31                 56138                       # What write queue length does an incoming req see (Count)
system.mem_ctrls1.wrQLenPdf::32                 56138                       # What write queue length does an incoming req see (Count)
system.mem_ctrls1.wrQLenPdf::33                     0                       # What write queue length does an incoming req see (Count)
system.mem_ctrls1.wrQLenPdf::34                     0                       # What write queue length does an incoming req see (Count)
system.mem_ctrls1.wrQLenPdf::35                     0                       # What write queue length does an incoming req see (Count)
system.mem_ctrls1.wrQLenPdf::36                     0                       # What write queue length does an incoming req see (Count)
system.mem_ctrls1.wrQLenPdf::37                     0                       # What write queue length does an incoming req see (Count)
system.mem_ctrls1.wrQLenPdf::38                     0                       # What write queue length does an incoming req see (Count)
system.mem_ctrls1.wrQLenPdf::39                     0                       # What write queue length does an incoming req see (Count)
system.mem_ctrls1.wrQLenPdf::40                     0                       # What write queue length does an incoming req see (Count)
system.mem_ctrls1.wrQLenPdf::41                     0                       # What write queue length does an incoming req see (Count)
system.mem_ctrls1.wrQLenPdf::42                     0                       # What write queue length does an incoming req see (Count)
system.mem_ctrls1.wrQLenPdf::43                     0                       # What write queue length does an incoming req see (Count)
system.mem_ctrls1.wrQLenPdf::44                     0                       # What write queue length does an incoming req see (Count)
system.mem_ctrls1.wrQLenPdf::45                     0                       # What write queue length does an incoming req see (Count)
system.mem_ctrls1.wrQLenPdf::46                     0                       # What write queue length does an incoming req see (Count)
system.mem_ctrls1.wrQLenPdf::47                     0                       # What write queue length does an incoming req see (Count)
system.mem_ctrls1.wrQLenPdf::48                     0                       # What write queue length does an incoming req see (Count)
system.mem_ctrls1.wrQLenPdf::49                     0                       # What write queue length does an incoming req see (Count)
system.mem_ctrls1.wrQLenPdf::50                     0                       # What write queue length does an incoming req see (Count)
system.mem_ctrls1.wrQLenPdf::51                     0                       # What write queue length does an incoming req see (Count)
system.mem_ctrls1.wrQLenPdf::52                     0                       # What write queue length does an incoming req see (Count)
system.mem_ctrls1.wrQLenPdf::53                     0                       # What write queue length does an incoming req see (Count)
system.mem_ctrls1.wrQLenPdf::54                     0                       # What write queue length does an incoming req see (Count)
system.mem_ctrls1.wrQLenPdf::55                     0                       # What write queue length does an incoming req see (Count)
system.mem_ctrls1.wrQLenPdf::56                     0                       # What write queue length does an incoming req see (Count)
system.mem_ctrls1.wrQLenPdf::57                     0                       # What write queue length does an incoming req see (Count)
system.mem_ctrls1.wrQLenPdf::58                     0                       # What write queue length does an incoming req see (Count)
system.mem_ctrls1.wrQLenPdf::59                     0                       # What write queue length does an incoming req see (Count)
system.mem_ctrls1.wrQLenPdf::60                     0                       # What write queue length does an incoming req see (Count)
system.mem_ctrls1.wrQLenPdf::61                     0                       # What write queue length does an incoming req see (Count)
system.mem_ctrls1.wrQLenPdf::62                     0                       # What write queue length does an incoming req see (Count)
system.mem_ctrls1.wrQLenPdf::63                     0                       # What write queue length does an incoming req see (Count)
system.mem_ctrls1.rdPerTurnAround::samples        56138                       # Reads before turning the bus around for writes (Count)
system.mem_ctrls1.rdPerTurnAround::mean    762.756707                       # Reads before turning the bus around for writes (Count)
system.mem_ctrls1.rdPerTurnAround::stdev   883.695116                       # Reads before turning the bus around for writes (Count)
system.mem_ctrls1.rdPerTurnAround::0-1023        42067     74.93%     74.93% # Reads before turning the bus around for writes (Count)
system.mem_ctrls1.rdPerTurnAround::1024-2047         1174      2.09%     77.03% # Reads before turning the bus around for writes (Count)
system.mem_ctrls1.rdPerTurnAround::2048-3071        12893     22.97%     99.99% # Reads before turning the bus around for writes (Count)
system.mem_ctrls1.rdPerTurnAround::3072-4095            1      0.00%     99.99% # Reads before turning the bus around for writes (Count)
system.mem_ctrls1.rdPerTurnAround::5120-6143            1      0.00%    100.00% # Reads before turning the bus around for writes (Count)
system.mem_ctrls1.rdPerTurnAround::15360-16383            1      0.00%    100.00% # Reads before turning the bus around for writes (Count)
[...]
system.mem_ctrls3.dram.bwWrite::total         2699029                       # Write bandwidth from this memory ((Byte/Second))
system.mem_ctrls3.dram.bwTotal::cpu.inst     24974891                       # Total bandwidth to/from this memory ((Byte/Second))
system.mem_ctrls3.dram.bwTotal::cpu.data      8433171                       # Total bandwidth to/from this memory ((Byte/Second))
system.mem_ctrls3.dram.bwTotal::total        33408062                       # Total bandwidth to/from this memory ((Byte/Second))
system.mem_ctrls3.dram.readBursts            45574482                       # Number of DRAM read bursts (Count)
system.mem_ctrls3.dram.writeBursts            1010547                       # Number of DRAM write bursts (Count)
system.mem_ctrls3.dram.perBankRdBursts::0       347335                       # Per bank write bursts (Count)
system.mem_ctrls3.dram.perBankRdBursts::1     37346755                       # Per bank write bursts (Count)
system.mem_ctrls3.dram.perBankRdBursts::2      3347044                       # Per bank write bursts (Count)
system.mem_ctrls3.dram.perBankRdBursts::3       352805                       # Per bank write bursts (Count)
system.mem_ctrls3.dram.perBankRdBursts::4       350112                       # Per bank write bursts (Count)
system.mem_ctrls3.dram.perBankRdBursts::5       348948                       # Per bank write bursts (Count)
system.mem_ctrls3.dram.perBankRdBursts::6       357633                       # Per bank write bursts (Count)
system.mem_ctrls3.dram.perBankRdBursts::7       353157                       # Per bank write bursts (Count)
system.mem_ctrls3.dram.perBankRdBursts::8       344262                       # Per bank write bursts (Count)
system.mem_ctrls3.dram.perBankRdBursts::9       344336                       # Per bank write bursts (Count)
system.mem_ctrls3.dram.perBankRdBursts::10       344842                       # Per bank write bursts (Count)
system.mem_ctrls3.dram.perBankRdBursts::11       347021                       # Per bank write bursts (Count)
system.mem_ctrls3.dram.perBankRdBursts::12       344314                       # Per bank write bursts (Count)
system.mem_ctrls3.dram.perBankRdBursts::13       344131                       # Per bank write bursts (Count)
system.mem_ctrls3.dram.perBankRdBursts::14       349520                       # Per bank write bursts (Count)
system.mem_ctrls3.dram.perBankRdBursts::15       352267                       # Per bank write bursts (Count)
system.mem_ctrls3.dram.perBankWrBursts::0        63119                       # Per bank write bursts (Count)
system.mem_ctrls3.dram.perBankWrBursts::1        63134                       # Per bank write bursts (Count)
system.mem_ctrls3.dram.perBankWrBursts::2        63150                       # Per bank write bursts (Count)
system.mem_ctrls3.dram.perBankWrBursts::3        63126                       # Per bank write bursts (Count)
system.mem_ctrls3.dram.perBankWrBursts::4        63342                       # Per bank write bursts (Count)
system.mem_ctrls3.dram.perBankWrBursts::5        63257                       # Per bank write bursts (Count)
system.mem_ctrls3.dram.perBankWrBursts::6        63291                       # Per bank write bursts (Count)
system.mem_ctrls3.dram.perBankWrBursts::7        63258                       # Per bank write bursts (Count)
system.mem_ctrls3.dram.perBankWrBursts::8        63114                       # Per bank write bursts (Count)
system.mem_ctrls3.dram.perBankWrBursts::9        63106                       # Per bank write bursts (Count)
system.mem_ctrls3.dram.perBankWrBursts::10        63126                       # Per bank write bursts (Count)
system.mem_ctrls3.dram.perBankWrBursts::11        63105                       # Per bank write bursts (Count)
system.mem_ctrls3.dram.perBankWrBursts::12        63098                       # Per bank write bursts (Count)
system.mem_ctrls3.dram.perBankWrBursts::13        63125                       # Per bank write bursts (Count)
system.mem_ctrls3.dram.perBankWrBursts::14        63098                       # Per bank write bursts (Count)
system.mem_ctrls3.dram.perBankWrBursts::15        63098                       # Per bank write bursts (Count)
system.mem_ctrls3.dram.totQLat           704320354000                       # Total ticks spent queuing (Tick)
system.mem_ctrls3.dram.totBusLat          91148964000                       # Total ticks spent in databus transfers (Tick)
system.mem_ctrls3.dram.totMemAccLat      1615809994000                       # Total ticks spent from burst creation until serviced by the DRAM (Tick)
system.mem_ctrls3.dram.avgQLat               15454.27                       # Average queueing delay per DRAM burst ((Tick/Count))
system.mem_ctrls3.dram.avgBusLat              2000.00                       # Average bus latency per DRAM burst ((Tick/Count))
system.mem_ctrls3.dram.avgMemAccLat          35454.27                       # Average memory access latency per DRAM burst ((Tick/Count))
system.mem_ctrls3.dram.readRowHits               2643                       # Number of row buffer hits during reads (Count)
system.mem_ctrls3.dram.writeRowHits            867602                       # Number of row buffer hits during writes (Count)
system.mem_ctrls3.dram.readRowHitRate            0.01                       # Row buffer hit rate for reads (Ratio)
system.mem_ctrls3.dram.writeRowHitRate          85.85                       # Row buffer hit rate for writes (Ratio)
system.mem_ctrls3.dram.bytesPerActivate::samples     45714784                       # Bytes accessed per row activation (Byte)
system.mem_ctrls3.dram.bytesPerActivate::mean    32.609165                       # Bytes accessed per row activation (Byte)
system.mem_ctrls3.dram.bytesPerActivate::gmean    32.183105                       # Bytes accessed per row activation (Byte)
system.mem_ctrls3.dram.bytesPerActivate::stdev    11.897772                       # Bytes accessed per row activation (Byte)
system.mem_ctrls3.dram.bytesPerActivate::32-63     45582137     99.71%     99.71% # Bytes accessed per row activation (Byte)
system.mem_ctrls3.dram.bytesPerActivate::64-95         2456      0.01%     99.72% # Bytes accessed per row activation (Byte)
system.mem_ctrls3.dram.bytesPerActivate::96-127         5707      0.01%     99.73% # Bytes accessed per row activation (Byte)
system.mem_ctrls3.dram.bytesPerActivate::128-159         7997      0.02%     99.75% # Bytes accessed per row activation (Byte)
system.mem_ctrls3.dram.bytesPerActivate::160-191        16350      0.04%     99.78% # Bytes accessed per row activation (Byte)
system.mem_ctrls3.dram.bytesPerActivate::192-223         1680      0.00%     99.78% # Bytes accessed per row activation (Byte)
system.mem_ctrls3.dram.bytesPerActivate::224-255         5857      0.01%     99.80% # Bytes accessed per row activation (Byte)
system.mem_ctrls3.dram.bytesPerActivate::256-287        46467      0.10%     99.90% # Bytes accessed per row activation (Byte)
system.mem_ctrls3.dram.bytesPerActivate::288-319        17084      0.04%     99.94% # Bytes accessed per row activation (Byte)
system.mem_ctrls3.dram.bytesPerActivate::320-351        29014      0.06%    100.00% # Bytes accessed per row activation (Byte)
system.mem_ctrls3.dram.bytesPerActivate::352-383           16      0.00%    100.00% # Bytes accessed per row activation (Byte)
system.mem_ctrls3.dram.bytesPerActivate::384-415           15      0.00%    100.00% # Bytes accessed per row activation (Byte)
system.mem_ctrls3.dram.bytesPerActivate::416-447            2      0.00%    100.00% # Bytes accessed per row activation (Byte)
system.mem_ctrls3.dram.bytesPerActivate::448-479            2      0.00%    100.00% # Bytes accessed per row activation (Byte)
system.mem_ctrls3.dram.bytesPerActivate::total     45714784                       # Bytes accessed per row activation (Byte)
system.mem_ctrls3.dram.bytesRead           1458383424                       # Total bytes read (Byte)
system.mem_ctrls3.dram.bytesWritten          32337504                       # Total bytes written (Byte)
system.mem_ctrls3.dram.avgRdBW             122.839695                       # Average DRAM read bandwidth in MiBytes/s ((Byte/Second))
system.mem_ctrls3.dram.avgWrBW               2.723789                       # Average DRAM write bandwidth in MiBytes/s ((Byte/Second))
system.mem_ctrls3.dram.peakBW                16000.00                       # Theoretical peak bandwidth in MiByte/s ((Byte/Second))
system.mem_ctrls3.dram.busUtil                   0.78                       # Data bus utilization in percentage (Ratio)
system.mem_ctrls3.dram.busUtilRead               0.77                       # Data bus utilization in percentage for reads (Ratio)
system.mem_ctrls3.dram.busUtilWrite              0.02                       # Data bus utilization in percentage for writes (Ratio)
system.mem_ctrls3.dram.pageHitRate               1.87                       # Row buffer hit rate, read and write combined (Ratio)
system.mem_ctrls3.dram.power_state.pwrStateResidencyTicks::UNDEFINED 11872248773000                       # Cumulative time (in ticks) in various power states (Tick)
system.mem_ctrls3.dram.rank0.actEnergy              0                       # Energy for activate commands per rank (pJ) (Joule)
system.mem_ctrls3.dram.rank0.preEnergy              0                       # Energy for precharge commands per rank (pJ) (Joule)
system.mem_ctrls3.dram.rank0.readEnergy             0                       # Energy for read commands per rank (pJ) (Joule)
system.mem_ctrls3.dram.rank0.writeEnergy            0                       # Energy for write commands per rank (pJ) (Joule)
system.mem_ctrls3.dram.rank0.refreshEnergy            0                       # Energy for refresh commands per rank (pJ) (Joule)
system.mem_ctrls3.dram.rank0.actBackEnergy            0                       # Energy for active background per rank (pJ) (Joule)
system.mem_ctrls3.dram.rank0.preBackEnergy            0                       # Energy for precharge background per rank (pJ) (Joule)
system.mem_ctrls3.dram.rank0.actPowerDownEnergy            0                       # Energy for active power-down per rank (pJ) (Joule)
system.mem_ctrls3.dram.rank0.prePowerDownEnergy            0                       # Energy for precharge power-down per rank (pJ) (Joule)
system.mem_ctrls3.dram.rank0.selfRefreshEnergy            0                       # Energy for self refresh per rank (pJ) (Joule)
system.mem_ctrls3.dram.rank0.totalEnergy            0                       # Total energy per rank (pJ) (Joule)
system.mem_ctrls3.dram.rank0.averagePower            0                       # Core power per rank (mW) (Watt)
system.mem_ctrls3.dram.rank0.totalIdleTime            0                       # Total Idle time Per DRAM Rank (Tick)
system.mem_ctrls3.dram.rank0.pwrStateTime::IDLE 9212679915000                       # Time in different power states (Tick)
system.mem_ctrls3.dram.rank0.pwrStateTime::REF 672129260000                       # Time in different power states (Tick)
system.mem_ctrls3.dram.rank0.pwrStateTime::SREF            0                       # Time in different power states (Tick)
system.mem_ctrls3.dram.rank0.pwrStateTime::PRE_PDN            0                       # Time in different power states (Tick)
system.mem_ctrls3.dram.rank0.pwrStateTime::ACT 1987439598000                       # Time in different power states (Tick)
system.mem_ctrls3.dram.rank0.pwrStateTime::ACT_PDN            0                       # Time in different power states (Tick)
system.mem_ctrls3.power_state.pwrStateResidencyTicks::UNDEFINED 11872248773000                       # Cumulative time (in ticks) in various power states (Tick)
system.membus.transDist::ReadReq            176364133                       # Transaction distribution (Count)
system.membus.transDist::ReadResp           176364133                       # Transaction distribution (Count)
system.membus.transDist::WriteReq            16020611                       # Transaction distribution (Count)
system.membus.transDist::WriteResp           16020611                       # Transaction distribution (Count)
system.membus.pktCount_system.cpu.icache_port::system.mem_ctrls0.port     36182766                       # Packet count per connected requestor and responder (Count)
system.membus.pktCount_system.cpu.icache_port::system.mem_ctrls1.port    110142174                       # Packet count per connected requestor and responder (Count)
system.membus.pktCount_system.cpu.icache_port::system.mem_ctrls2.port     78168010                       # Packet count per connected requestor and responder (Count)
system.membus.pktCount_system.cpu.icache_port::system.mem_ctrls3.port     74127030                       # Packet count per connected requestor and responder (Count)
system.membus.pktCount_system.cpu.icache_port::total    298619980                       # Packet count per connected requestor and responder (Count)
system.membus.pktCount_system.cpu.dcache_port::system.mem_ctrls0.port     19047090                       # Packet count per connected requestor and responder (Count)
system.membus.pktCount_system.cpu.dcache_port::system.mem_ctrls1.port     21029978                       # Packet count per connected requestor and responder (Count)
system.membus.pktCount_system.cpu.dcache_port::system.mem_ctrls2.port     21034176                       # Packet count per connected requestor and responder (Count)
system.membus.pktCount_system.cpu.dcache_port::system.mem_ctrls3.port     25038264                       # Packet count per connected requestor and responder (Count)
system.membus.pktCount_system.cpu.dcache_port::total     86149508                       # Packet count per connected requestor and responder (Count)
system.membus.pktCount::total               384769488                       # Packet count per connected requestor and responder (Count)
system.membus.pktSize_system.cpu.icache_port::system.mem_ctrls0.port    144731064                       # Cumulative packet size per connected requestor and responder (Byte)
system.membus.pktSize_system.cpu.icache_port::system.mem_ctrls1.port    440568696                       # Cumulative packet size per connected requestor and responder (Byte)
system.membus.pktSize_system.cpu.icache_port::system.mem_ctrls2.port    312672040                       # Cumulative packet size per connected requestor and responder (Byte)
system.membus.pktSize_system.cpu.icache_port::system.mem_ctrls3.port    296508120                       # Cumulative packet size per connected requestor and responder (Byte)
system.membus.pktSize_system.cpu.icache_port::total   1194479920                       # Cumulative packet size per connected requestor and responder (Byte)
system.membus.pktSize_system.cpu.dcache_port::system.mem_ctrls0.port     76149356                       # Cumulative packet size per connected requestor and responder (Byte)
system.membus.pktSize_system.cpu.dcache_port::system.mem_ctrls1.port     84087561                       # Cumulative packet size per connected requestor and responder (Byte)
system.membus.pktSize_system.cpu.dcache_port::system.mem_ctrls2.port     84098659                       # Cumulative packet size per connected requestor and responder (Byte)
system.membus.pktSize_system.cpu.dcache_port::system.mem_ctrls3.port    100120701                       # Cumulative packet size per connected requestor and responder (Byte)
system.membus.pktSize_system.cpu.dcache_port::total    344456277                       # Cumulative packet size per connected requestor and responder (Byte)
system.membus.pktSize::total               1538936197                       # Cumulative packet size per connected requestor and responder (Byte)
system.membus.snoops                                0                       # Total snoops (Count)
system.membus.snoopTraffic                          0                       # Total snoop traffic (Byte)
system.membus.snoopFanout::samples          192384744                       # Request fanout histogram (Count)
system.membus.snoopFanout::mean                     0                       # Request fanout histogram (Count)
system.membus.snoopFanout::stdev                    0                       # Request fanout histogram (Count)
system.membus.snoopFanout::underflows               0      0.00%      0.00% # Request fanout histogram (Count)
system.membus.snoopFanout::0                192384744    100.00%    100.00% # Request fanout histogram (Count)
system.membus.snoopFanout::1                        0      0.00%    100.00% # Request fanout histogram (Count)
system.membus.snoopFanout::overflows                0      0.00%    100.00% # Request fanout histogram (Count)
system.membus.snoopFanout::min_value                0                       # Request fanout histogram (Count)
system.membus.snoopFanout::max_value                0                       # Request fanout histogram (Count)
system.membus.snoopFanout::total            192384744                       # Request fanout histogram (Count)
system.membus.power_state.pwrStateResidencyTicks::UNDEFINED 11872248773000                       # Cumulative time (in ticks) in various power states (Tick)
system.membus.reqLayer2.occupancy         31620920000                       # Layer occupancy (ticks) (Tick)
system.membus.reqLayer2.utilization               0.0                       # Layer utilization (Ratio)
system.membus.reqLayer3.occupancy         69589925000                       # Layer occupancy (ticks) (Tick)
system.membus.reqLayer3.utilization               0.0                       # Layer utilization (Ratio)
system.membus.reqLayer4.occupancy         53605840000                       # Layer occupancy (ticks) (Tick)
system.membus.reqLayer4.utilization               0.0                       # Layer utilization (Ratio)
system.membus.reqLayer5.occupancy         53588670000                       # Layer occupancy (ticks) (Tick)
system.membus.reqLayer5.utilization               0.0                       # Layer utilization (Ratio)
system.membus.respLayer1.occupancy       298619980000                       # Layer occupancy (ticks) (Tick)
system.membus.respLayer1.utilization              0.0                       # Layer utilization (Ratio)
system.membus.respLayer2.occupancy        70128897000                       # Layer occupancy (ticks) (Tick)
system.membus.respLayer2.utilization              0.0                       # Layer utilization (Ratio)
system.membus.snoop_filter.totRequests              0                       # Total number of requests made to the snoop filter. (Count)
system.membus.snoop_filter.hitSingleRequests            0                       # Number of requests hitting in the snoop filter with a single holder of the requested data. (Count)
system.membus.snoop_filter.hitMultiRequests            0                       # Number of requests hitting in the snoop filter with multiple (>1) holders of the requested data. (Count)
system.membus.snoop_filter.totSnoops                0                       # Total number of snoops made to the snoop filter. (Count)
system.membus.snoop_filter.hitSingleSnoops            0                       # Number of snoops hitting in the snoop filter with a single holder of the requested data. (Count)
system.membus.snoop_filter.hitMultiSnoops            0                       # Number of snoops hitting in the snoop filter with multiple (>1) holders of the requested data. (Count)
system.voltage_domain.voltage                       1                       # Voltage in Volts (Volt)
system.workload.inst.arm                            0                       # number of arm instructions executed (Count)
system.workload.inst.quiesce                        0                       # number of quiesce instructions executed (Count)

---------- End Simulation Statistics   ----------
