Global frequency set at 1000000000000 ticks per second
gem5 Simulator System.  https://www.gem5.org
gem5 is copyrighted software; use the --copyright option for details.

gem5 version 22.0.0.2
gem5 compiled Aug  8 2022 00:57:17
gem5 started Aug  9 2022 08:12:13
gem5 executing on codespaces-4933b6, pid 10495
command line: ../gem5/build/X86/gem5.opt --outdir=./result/test10/HBM_2000_4H_1x64 se.py --cpu-type DerivO3CPU -n 8 --cpu-clock 3GHz --caches --l2cache --mem-type HBM_2000_4H_1x64 --cmd ./workload/stream_omp_X86.1M

info: Standard input is not a terminal, disabling listeners.
**** REAL SIMULATION ****
-------------------------------------------------------------
STREAM version $Revision: 5.10 $
-------------------------------------------------------------
This system uses 8 bytes per array element.
-------------------------------------------------------------
Array size = 1000000 (elements), Offset = 0 (elements)
Memory per array = 7.6 MiB (= 0.0 GiB).
Total memory required = 22.9 MiB (= 0.0 GiB).
Each kernel will be executed 3 times.
 The *best* time for each kernel (excluding the first iteration)
 will be used to compute the reported bandwidth.
-------------------------------------------------------------
Number of Threads requested = 8
Number of Threads counted = 8
-------------------------------------------------------------
Your clock granularity/precision appears to be 1 microseconds.
Each test below will take on the order of 2317 microseconds.
   (= 2317 clock ticks)
Increase the size of the arrays if this shows that
you are not getting at least 20 clock ticks per test.
-------------------------------------------------------------
WARNING -- The above is only a rough guideline.
For best results, please be sure you know the
precision of your system timer.
-------------------------------------------------------------
Function    Best Rate MB/s  Avg time     Min time     Max time
Copy:            4761.9     0.003363     0.003360     0.003367
Scale:           5292.7     0.003028     0.003023     0.003033
Add:             7631.2     0.003184     0.003145     0.003223
Triad:           7159.8     0.003404     0.003352     0.003457
-------------------------------------------------------------
Solution Validates: avg error less than 1.000000e-13 on all three arrays
-------------------------------------------------------------
Exiting @ tick 61438434066 because exiting with last active thread context
