Global frequency set at 1000000000000 ticks per second
gem5 Simulator System.  https://www.gem5.org
gem5 is copyrighted software; use the --copyright option for details.

gem5 version 22.0.0.2
gem5 compiled Aug  8 2022 00:57:17
gem5 started Aug  9 2022 08:12:13
gem5 executing on codespaces-4933b6, pid 10496
command line: ../gem5/build/X86/gem5.opt --outdir=./result/test10/GDDR5_4000_2x32 se.py --cpu-type DerivO3CPU -n 8 --cpu-clock 3GHz --caches --l2cache --mem-type GDDR5_4000_2x32 --cmd ./workload/stream_omp_X86.1M

info: Standard input is not a terminal, disabling listeners.
**** REAL SIMULATION ****
-------------------------------------------------------------
STREAM version $Revision: 5.10 $
-------------------------------------------------------------
This system uses 8 bytes per array element.
-------------------------------------------------------------
Array size = 1000000 (elements), Offset = 0 (elements)
Memory per array = 7.6 MiB (= 0.0 GiB).
Total memory required = 22.9 MiB (= 0.0 GiB).
Each kernel will be executed 3 times.
 The *best* time for each kernel (excluding the first iteration)
 will be used to compute the reported bandwidth.
-------------------------------------------------------------
Number of Threads requested = 8
Number of Threads counted = 8
-------------------------------------------------------------
Your clock granularity/precision appears to be 1 microseconds.
Each test below will take on the order of 1718 microseconds.
   (= 1718 clock ticks)
Increase the size of the arrays if this shows that
you are not getting at least 20 clock ticks per test.
-------------------------------------------------------------
WARNING -- The above is only a rough guideline.
For best results, please be sure you know the
precision of your system timer.
-------------------------------------------------------------
Function    Best Rate MB/s  Avg time     Min time     Max time
Copy:            6123.4     0.002615     0.002613     0.002618
Scale:           8256.0     0.001948     0.001938     0.001958
Add:             8727.5     0.002753     0.002750     0.002757
Triad:           9685.2     0.002501     0.002478     0.002523
-------------------------------------------------------------
Solution Validates: avg error less than 1.000000e-13 on all three arrays
-------------------------------------------------------------
Exiting @ tick 46952300034 because exiting with last active thread context
