
---------- Begin Simulation Statistics ----------
simSeconds                                   0.072911                       # Number of seconds simulated (Second)
simTicks                                  72910510250                       # Number of ticks simulated (Tick)
finalTick                                 72910510250                       # Number of ticks from beginning of simulation (restored from checkpoints and never reset) (Tick)
simFreq                                  1000000000000                       # The number of ticks per simulated second ((Tick/Second))
hostSeconds                                   4175.00                       # Real time elapsed on the host (Second)
hostTickRate                                 17463577                       # The number of ticks simulated per host second (ticks/s) ((Tick/Second))
hostMemory                                    2877488                       # Number of bytes of host memory used (Byte)
simInsts                                    255267611                       # Number of instructions simulated (Count)
simOps                                      460562019                       # Number of ops (including micro ops) simulated (Count)
hostInstRate                                    61142                       # Simulator instruction rate (inst/s) ((Count/Second))
hostOpRate                                     110314                       # Simulator op (including micro ops) rate (op/s) ((Count/Second))
system.clk_domain.clock                          1000                       # Clock period in ticks (Tick)
system.cpu0.numCycles                       291642042                       # Number of cpu cycles simulated (Cycle)
system.cpu0.numWorkItemsStarted                     0                       # Number of work items this cpu started (Count)
system.cpu0.numWorkItemsCompleted                   0                       # Number of work items this cpu completed (Count)
system.cpu0.instsAdded                       92801641                       # Number of instructions added to the IQ (excludes non-spec) (Count)
system.cpu0.nonSpecInstsAdded                    1692                       # Number of non-speculative instructions added to the IQ (Count)
system.cpu0.instsIssued                      93016287                       # Number of instructions issued (Count)
system.cpu0.squashedInstsIssued                  3609                       # Number of squashed instructions issued (Count)
system.cpu0.squashedInstsExamined              631646                       # Number of squashed instructions iterated over during squash; mainly for profiling (Count)
system.cpu0.squashedOperandsExamined           742895                       # Number of squashed operands that are examined and possibly removed from graph (Count)
system.cpu0.squashedNonSpecRemoved                582                       # Number of squashed non-spec instructions that were removed (Count)
system.cpu0.numIssuedDist::samples          291244652                       # Number of insts issued each cycle (Count)
system.cpu0.numIssuedDist::mean              0.319375                       # Number of insts issued each cycle (Count)
system.cpu0.numIssuedDist::stdev             1.152230                       # Number of insts issued each cycle (Count)
system.cpu0.numIssuedDist::underflows               0      0.00%      0.00% # Number of insts issued each cycle (Count)
system.cpu0.numIssuedDist::0                262947478     90.28%     90.28% # Number of insts issued each cycle (Count)
system.cpu0.numIssuedDist::1                  6607746      2.27%     92.55% # Number of insts issued each cycle (Count)
system.cpu0.numIssuedDist::2                  6223102      2.14%     94.69% # Number of insts issued each cycle (Count)
system.cpu0.numIssuedDist::3                  2197417      0.75%     95.44% # Number of insts issued each cycle (Count)
system.cpu0.numIssuedDist::4                  7049344      2.42%     97.86% # Number of insts issued each cycle (Count)
system.cpu0.numIssuedDist::5                  1365110      0.47%     98.33% # Number of insts issued each cycle (Count)
system.cpu0.numIssuedDist::6                  2410586      0.83%     99.16% # Number of insts issued each cycle (Count)
system.cpu0.numIssuedDist::7                  1667308      0.57%     99.73% # Number of insts issued each cycle (Count)
system.cpu0.numIssuedDist::8                   776561      0.27%    100.00% # Number of insts issued each cycle (Count)
system.cpu0.numIssuedDist::overflows                0      0.00%    100.00% # Number of insts issued each cycle (Count)
system.cpu0.numIssuedDist::min_value                0                       # Number of insts issued each cycle (Count)
system.cpu0.numIssuedDist::max_value                8                       # Number of insts issued each cycle (Count)
system.cpu0.numIssuedDist::total            291244652                       # Number of insts issued each cycle (Count)
system.cpu0.statFuBusy::No_OpClass                  0      0.00%      0.00% # attempts to use FU when none available (Count)
system.cpu0.statFuBusy::IntAlu                  17183      1.26%      1.26% # attempts to use FU when none available (Count)
system.cpu0.statFuBusy::IntMult                     0      0.00%      1.26% # attempts to use FU when none available (Count)
system.cpu0.statFuBusy::IntDiv                      0      0.00%      1.26% # attempts to use FU when none available (Count)
system.cpu0.statFuBusy::FloatAdd                    0      0.00%      1.26% # attempts to use FU when none available (Count)
system.cpu0.statFuBusy::FloatCmp                    0      0.00%      1.26% # attempts to use FU when none available (Count)
system.cpu0.statFuBusy::FloatCvt                    0      0.00%      1.26% # attempts to use FU when none available (Count)
system.cpu0.statFuBusy::FloatMult                   0      0.00%      1.26% # attempts to use FU when none available (Count)
system.cpu0.statFuBusy::FloatMultAcc                0      0.00%      1.26% # attempts to use FU when none available (Count)
system.cpu0.statFuBusy::FloatDiv                    0      0.00%      1.26% # attempts to use FU when none available (Count)
system.cpu0.statFuBusy::FloatMisc                   0      0.00%      1.26% # attempts to use FU when none available (Count)
system.cpu0.statFuBusy::FloatSqrt                   0      0.00%      1.26% # attempts to use FU when none available (Count)
system.cpu0.statFuBusy::SimdAdd                     1      0.00%      1.26% # attempts to use FU when none available (Count)
system.cpu0.statFuBusy::SimdAddAcc                  0      0.00%      1.26% # attempts to use FU when none available (Count)
system.cpu0.statFuBusy::SimdAlu                   124      0.01%      1.27% # attempts to use FU when none available (Count)
system.cpu0.statFuBusy::SimdCmp                     0      0.00%      1.27% # attempts to use FU when none available (Count)
system.cpu0.statFuBusy::SimdCvt                   146      0.01%      1.28% # attempts to use FU when none available (Count)
system.cpu0.statFuBusy::SimdMisc                   51      0.00%      1.29% # attempts to use FU when none available (Count)
system.cpu0.statFuBusy::SimdMult                    0      0.00%      1.29% # attempts to use FU when none available (Count)
system.cpu0.statFuBusy::SimdMultAcc                 0      0.00%      1.29% # attempts to use FU when none available (Count)
system.cpu0.statFuBusy::SimdShift                  20      0.00%      1.29% # attempts to use FU when none available (Count)
system.cpu0.statFuBusy::SimdShiftAcc                0      0.00%      1.29% # attempts to use FU when none available (Count)
system.cpu0.statFuBusy::SimdDiv                     0      0.00%      1.29% # attempts to use FU when none available (Count)
system.cpu0.statFuBusy::SimdSqrt                    0      0.00%      1.29% # attempts to use FU when none available (Count)
system.cpu0.statFuBusy::SimdFloatAdd          1291262     94.86%     96.15% # attempts to use FU when none available (Count)
system.cpu0.statFuBusy::SimdFloatAlu                0      0.00%     96.15% # attempts to use FU when none available (Count)
system.cpu0.statFuBusy::SimdFloatCmp                0      0.00%     96.15% # attempts to use FU when none available (Count)
system.cpu0.statFuBusy::SimdFloatCvt                0      0.00%     96.15% # attempts to use FU when none available (Count)
system.cpu0.statFuBusy::SimdFloatDiv                0      0.00%     96.15% # attempts to use FU when none available (Count)
system.cpu0.statFuBusy::SimdFloatMisc               0      0.00%     96.15% # attempts to use FU when none available (Count)
system.cpu0.statFuBusy::SimdFloatMult               0      0.00%     96.15% # attempts to use FU when none available (Count)
system.cpu0.statFuBusy::SimdFloatMultAcc            0      0.00%     96.15% # attempts to use FU when none available (Count)
system.cpu0.statFuBusy::SimdFloatSqrt               0      0.00%     96.15% # attempts to use FU when none available (Count)
system.cpu0.statFuBusy::SimdReduceAdd               0      0.00%     96.15% # attempts to use FU when none available (Count)
system.cpu0.statFuBusy::SimdReduceAlu               0      0.00%     96.15% # attempts to use FU when none available (Count)
system.cpu0.statFuBusy::SimdReduceCmp               0      0.00%     96.15% # attempts to use FU when none available (Count)
system.cpu0.statFuBusy::SimdFloatReduceAdd            0      0.00%     96.15% # attempts to use FU when none available (Count)
system.cpu0.statFuBusy::SimdFloatReduceCmp            0      0.00%     96.15% # attempts to use FU when none available (Count)
system.cpu0.statFuBusy::SimdAes                     0      0.00%     96.15% # attempts to use FU when none available (Count)
system.cpu0.statFuBusy::SimdAesMix                  0      0.00%     96.15% # attempts to use FU when none available (Count)
system.cpu0.statFuBusy::SimdSha1Hash                0      0.00%     96.15% # attempts to use FU when none available (Count)
system.cpu0.statFuBusy::SimdSha1Hash2               0      0.00%     96.15% # attempts to use FU when none available (Count)
system.cpu0.statFuBusy::SimdSha256Hash              0      0.00%     96.15% # attempts to use FU when none available (Count)
system.cpu0.statFuBusy::SimdSha256Hash2             0      0.00%     96.15% # attempts to use FU when none available (Count)
system.cpu0.statFuBusy::SimdShaSigma2               0      0.00%     96.15% # attempts to use FU when none available (Count)
system.cpu0.statFuBusy::SimdShaSigma3               0      0.00%     96.15% # attempts to use FU when none available (Count)
system.cpu0.statFuBusy::SimdPredAlu                 0      0.00%     96.15% # attempts to use FU when none available (Count)
system.cpu0.statFuBusy::MemRead                  2140      0.16%     96.30% # attempts to use FU when none available (Count)
system.cpu0.statFuBusy::MemWrite                 1340      0.10%     96.40% # attempts to use FU when none available (Count)
system.cpu0.statFuBusy::FloatMemRead             4256      0.31%     96.71% # attempts to use FU when none available (Count)
system.cpu0.statFuBusy::FloatMemWrite           44730      3.29%    100.00% # attempts to use FU when none available (Count)
system.cpu0.statFuBusy::IprAccess                   0      0.00%    100.00% # attempts to use FU when none available (Count)
system.cpu0.statFuBusy::InstPrefetch                0      0.00%    100.00% # attempts to use FU when none available (Count)
system.cpu0.statIssuedInstType_0::No_OpClass        26489      0.03%      0.03% # Number of instructions issued per FU type, per thread (Count)
system.cpu0.statIssuedInstType_0::IntAlu     51392174     55.25%     55.28% # Number of instructions issued per FU type, per thread (Count)
system.cpu0.statIssuedInstType_0::IntMult          302      0.00%     55.28% # Number of instructions issued per FU type, per thread (Count)
system.cpu0.statIssuedInstType_0::IntDiv         2975      0.00%     55.28% # Number of instructions issued per FU type, per thread (Count)
system.cpu0.statIssuedInstType_0::FloatAdd      6881209      7.40%     62.68% # Number of instructions issued per FU type, per thread (Count)
system.cpu0.statIssuedInstType_0::FloatCmp            0      0.00%     62.68% # Number of instructions issued per FU type, per thread (Count)
system.cpu0.statIssuedInstType_0::FloatCvt          504      0.00%     62.68% # Number of instructions issued per FU type, per thread (Count)
system.cpu0.statIssuedInstType_0::FloatMult            0      0.00%     62.68% # Number of instructions issued per FU type, per thread (Count)
system.cpu0.statIssuedInstType_0::FloatMultAcc            0      0.00%     62.68% # Number of instructions issued per FU type, per thread (Count)
system.cpu0.statIssuedInstType_0::FloatDiv            0      0.00%     62.68% # Number of instructions issued per FU type, per thread (Count)
system.cpu0.statIssuedInstType_0::FloatMisc            0      0.00%     62.68% # Number of instructions issued per FU type, per thread (Count)
system.cpu0.statIssuedInstType_0::FloatSqrt            0      0.00%     62.68% # Number of instructions issued per FU type, per thread (Count)
system.cpu0.statIssuedInstType_0::SimdAdd         1605      0.00%     62.68% # Number of instructions issued per FU type, per thread (Count)
system.cpu0.statIssuedInstType_0::SimdAddAcc            0      0.00%     62.68% # Number of instructions issued per FU type, per thread (Count)
system.cpu0.statIssuedInstType_0::SimdAlu        31213      0.03%     62.72% # Number of instructions issued per FU type, per thread (Count)
system.cpu0.statIssuedInstType_0::SimdCmp           70      0.00%     62.72% # Number of instructions issued per FU type, per thread (Count)
system.cpu0.statIssuedInstType_0::SimdCvt         4633      0.00%     62.72% # Number of instructions issued per FU type, per thread (Count)
system.cpu0.statIssuedInstType_0::SimdMisc         4006      0.00%     62.73% # Number of instructions issued per FU type, per thread (Count)
system.cpu0.statIssuedInstType_0::SimdMult            0      0.00%     62.73% # Number of instructions issued per FU type, per thread (Count)
system.cpu0.statIssuedInstType_0::SimdMultAcc            0      0.00%     62.73% # Number of instructions issued per FU type, per thread (Count)
system.cpu0.statIssuedInstType_0::SimdShift         1284      0.00%     62.73% # Number of instructions issued per FU type, per thread (Count)
system.cpu0.statIssuedInstType_0::SimdShiftAcc            0      0.00%     62.73% # Number of instructions issued per FU type, per thread (Count)
system.cpu0.statIssuedInstType_0::SimdDiv            0      0.00%     62.73% # Number of instructions issued per FU type, per thread (Count)
system.cpu0.statIssuedInstType_0::SimdSqrt            0      0.00%     62.73% # Number of instructions issued per FU type, per thread (Count)
system.cpu0.statIssuedInstType_0::SimdFloatAdd     12883975     13.85%     76.58% # Number of instructions issued per FU type, per thread (Count)
system.cpu0.statIssuedInstType_0::SimdFloatAlu            0      0.00%     76.58% # Number of instructions issued per FU type, per thread (Count)
system.cpu0.statIssuedInstType_0::SimdFloatCmp           25      0.00%     76.58% # Number of instructions issued per FU type, per thread (Count)
system.cpu0.statIssuedInstType_0::SimdFloatCvt      6013514      6.47%     83.04% # Number of instructions issued per FU type, per thread (Count)
system.cpu0.statIssuedInstType_0::SimdFloatDiv           11      0.00%     83.04% # Number of instructions issued per FU type, per thread (Count)
system.cpu0.statIssuedInstType_0::SimdFloatMisc            0      0.00%     83.04% # Number of instructions issued per FU type, per thread (Count)
system.cpu0.statIssuedInstType_0::SimdFloatMult       754527      0.81%     83.85% # Number of instructions issued per FU type, per thread (Count)
system.cpu0.statIssuedInstType_0::SimdFloatMultAcc            0      0.00%     83.85% # Number of instructions issued per FU type, per thread (Count)
system.cpu0.statIssuedInstType_0::SimdFloatSqrt            0      0.00%     83.85% # Number of instructions issued per FU type, per thread (Count)
system.cpu0.statIssuedInstType_0::SimdReduceAdd            0      0.00%     83.85% # Number of instructions issued per FU type, per thread (Count)
system.cpu0.statIssuedInstType_0::SimdReduceAlu            0      0.00%     83.85% # Number of instructions issued per FU type, per thread (Count)
system.cpu0.statIssuedInstType_0::SimdReduceCmp            0      0.00%     83.85% # Number of instructions issued per FU type, per thread (Count)
system.cpu0.statIssuedInstType_0::SimdFloatReduceAdd            0      0.00%     83.85% # Number of instructions issued per FU type, per thread (Count)
system.cpu0.statIssuedInstType_0::SimdFloatReduceCmp            0      0.00%     83.85% # Number of instructions issued per FU type, per thread (Count)
system.cpu0.statIssuedInstType_0::SimdAes            0      0.00%     83.85% # Number of instructions issued per FU type, per thread (Count)
system.cpu0.statIssuedInstType_0::SimdAesMix            0      0.00%     83.85% # Number of instructions issued per FU type, per thread (Count)
system.cpu0.statIssuedInstType_0::SimdSha1Hash            0      0.00%     83.85% # Number of instructions issued per FU type, per thread (Count)
system.cpu0.statIssuedInstType_0::SimdSha1Hash2            0      0.00%     83.85% # Number of instructions issued per FU type, per thread (Count)
system.cpu0.statIssuedInstType_0::SimdSha256Hash            0      0.00%     83.85% # Number of instructions issued per FU type, per thread (Count)
system.cpu0.statIssuedInstType_0::SimdSha256Hash2            0      0.00%     83.85% # Number of instructions issued per FU type, per thread (Count)
system.cpu0.statIssuedInstType_0::SimdShaSigma2            0      0.00%     83.85% # Number of instructions issued per FU type, per thread (Count)
system.cpu0.statIssuedInstType_0::SimdShaSigma3            0      0.00%     83.85% # Number of instructions issued per FU type, per thread (Count)
system.cpu0.statIssuedInstType_0::SimdPredAlu            0      0.00%     83.85% # Number of instructions issued per FU type, per thread (Count)
system.cpu0.statIssuedInstType_0::MemRead       185669      0.20%     84.05% # Number of instructions issued per FU type, per thread (Count)
system.cpu0.statIssuedInstType_0::MemWrite       197398      0.21%     84.27% # Number of instructions issued per FU type, per thread (Count)
system.cpu0.statIssuedInstType_0::FloatMemRead     12752749     13.71%     97.98% # Number of instructions issued per FU type, per thread (Count)
system.cpu0.statIssuedInstType_0::FloatMemWrite      1881955      2.02%    100.00% # Number of instructions issued per FU type, per thread (Count)
system.cpu0.statIssuedInstType_0::IprAccess            0      0.00%    100.00% # Number of instructions issued per FU type, per thread (Count)
system.cpu0.statIssuedInstType_0::InstPrefetch            0      0.00%    100.00% # Number of instructions issued per FU type, per thread (Count)
system.cpu0.statIssuedInstType_0::total      93016287                       # Number of instructions issued per FU type, per thread (Count)
system.cpu0.issueRate                        0.318940                       # Inst issue rate ((Count/Cycle))
system.cpu0.fuBusy                            1361253                       # FU busy when requested (Count)
system.cpu0.fuBusyRate                       0.014635                       # FU busy rate (busy events/executed inst) ((Count/Count))
system.cpu0.intInstQueueReads               391858729                       # Number of integer instruction queue reads (Count)
system.cpu0.intInstQueueWrites               50954396                       # Number of integer instruction queue writes (Count)
system.cpu0.intInstQueueWakeupAccesses       50255087                       # Number of integer instruction queue wakeup accesses (Count)
system.cpu0.fpInstQueueReads                 86783359                       # Number of floating instruction queue reads (Count)
system.cpu0.fpInstQueueWrites                42480817                       # Number of floating instruction queue writes (Count)
system.cpu0.fpInstQueueWakeupAccesses        42371133                       # Number of floating instruction queue wakeup accesses (Count)
system.cpu0.vecInstQueueReads                       0                       # Number of vector instruction queue reads (Count)
system.cpu0.vecInstQueueWrites                      0                       # Number of vector instruction queue writes (Count)
system.cpu0.vecInstQueueWakeupAccesses              0                       # Number of vector instruction queue wakeup accesses (Count)
system.cpu0.intAluAccesses                   50289213                       # Number of integer alu accesses (Count)
system.cpu0.fpAluAccesses                    44061838                       # Number of floating point alu accesses (Count)
system.cpu0.vecAluAccesses                          0                       # Number of vector alu accesses (Count)
system.cpu0.numInsts                         92985279                       # Number of executed instructions (Count)
system.cpu0.numLoadInsts                     12925014                       # Number of load instructions executed (Count)
system.cpu0.numSquashedInsts                    31008                       # Number of squashed instructions skipped in execute (Count)
system.cpu0.numSwp                                  0                       # Number of swp insts executed (Count)
system.cpu0.numNop                                  0                       # Number of nop insts executed (Count)
system.cpu0.numRefs                          15003374                       # Number of memory reference insts executed (Count)
system.cpu0.numBranches                       9945121                       # Number of branches executed (Count)
system.cpu0.numStoreInsts                     2078360                       # Number of stores executed (Count)
system.cpu0.numRate                          0.318834                       # Inst execution rate ((Count/Cycle))
system.cpu0.timesIdled                           1800                       # Number of times that the entire CPU went into an idle state and unscheduled itself (Count)
system.cpu0.idleCycles                         397390                       # Total number of cycles that the CPU has spent unscheduled due to idling (Cycle)
system.cpu0.committedInsts                   49132425                       # Number of Instructions Simulated (Count)
system.cpu0.committedOps                     92171681                       # Number of Ops (including micro ops) Simulated (Count)
system.cpu0.cpi                              5.935837                       # CPI: Cycles Per Instruction ((Cycle/Count))
system.cpu0.totalCpi                         5.935837                       # CPI: Total CPI of All Threads ((Cycle/Count))
system.cpu0.ipc                              0.168468                       # IPC: Instructions Per Cycle ((Count/Cycle))
system.cpu0.totalIpc                         0.168468                       # IPC: Total IPC of All Threads ((Count/Cycle))
system.cpu0.intRegfileReads                  67550075                       # Number of integer regfile reads (Count)
system.cpu0.intRegfileWrites                 36193899                       # Number of integer regfile writes (Count)
system.cpu0.fpRegfileReads                   57928951                       # Number of floating regfile reads (Count)
system.cpu0.fpRegfileWrites                  34482427                       # Number of floating regfile writes (Count)
system.cpu0.ccRegfileReads                   61610374                       # number of cc regfile reads (Count)
system.cpu0.ccRegfileWrites                  27528048                       # number of cc regfile writes (Count)
system.cpu0.miscRegfileReads                 38912360                       # number of misc regfile reads (Count)
system.cpu0.miscRegfileWrites                     234                       # number of misc regfile writes (Count)
system.cpu0.MemDepUnit__0.insertedLoads      12608382                       # Number of loads inserted to the mem dependence unit. (Count)
system.cpu0.MemDepUnit__0.insertedStores      2084549                       # Number of stores inserted to the mem dependence unit. (Count)
system.cpu0.MemDepUnit__0.conflictingLoads       130400                       # Number of conflicting loads. (Count)
system.cpu0.MemDepUnit__0.conflictingStores       128961                       # Number of conflicting stores. (Count)
system.cpu0.MemDepUnit__1.insertedLoads             0                       # Number of loads inserted to the mem dependence unit. (Count)
system.cpu0.MemDepUnit__1.insertedStores            0                       # Number of stores inserted to the mem dependence unit. (Count)
system.cpu0.MemDepUnit__1.conflictingLoads            0                       # Number of conflicting loads. (Count)
system.cpu0.MemDepUnit__1.conflictingStores            0                       # Number of conflicting stores. (Count)
system.cpu0.MemDepUnit__2.insertedLoads             0                       # Number of loads inserted to the mem dependence unit. (Count)
system.cpu0.MemDepUnit__2.insertedStores            0                       # Number of stores inserted to the mem dependence unit. (Count)
system.cpu0.MemDepUnit__2.conflictingLoads            0                       # Number of conflicting loads. (Count)
system.cpu0.MemDepUnit__2.conflictingStores            0                       # Number of conflicting stores. (Count)
system.cpu0.MemDepUnit__3.insertedLoads             0                       # Number of loads inserted to the mem dependence unit. (Count)
system.cpu0.MemDepUnit__3.insertedStores            0                       # Number of stores inserted to the mem dependence unit. (Count)
system.cpu0.MemDepUnit__3.conflictingLoads            0                       # Number of conflicting loads. (Count)
system.cpu0.MemDepUnit__3.conflictingStores            0                       # Number of conflicting stores. (Count)
system.cpu0.branchPred.lookups                9997445                       # Number of BP lookups (Count)
system.cpu0.branchPred.condPredicted          9934874                       # Number of conditional branches predicted (Count)
system.cpu0.branchPred.condIncorrect             9003                       # Number of conditional branches incorrect (Count)
system.cpu0.branchPred.BTBLookups             3851201                       # Number of BTB lookups (Count)
system.cpu0.branchPred.BTBHits                3847438                       # Number of BTB hits (Count)
system.cpu0.branchPred.BTBHitRatio           0.999023                       # BTB Hit Ratio (Ratio)
system.cpu0.branchPred.RASUsed                  19288                       # Number of times the RAS was used to get a target. (Count)
system.cpu0.branchPred.RASIncorrect                24                       # Number of incorrect RAS predictions. (Count)
system.cpu0.branchPred.indirectLookups          10244                       # Number of indirect predictor lookups. (Count)
system.cpu0.branchPred.indirectHits              5794                       # Number of indirect target hits. (Count)
system.cpu0.branchPred.indirectMisses            4450                       # Number of indirect misses. (Count)
system.cpu0.branchPred.indirectMispredicted          857                       # Number of mispredicted indirect branches. (Count)
system.cpu0.commit.commitSquashedInsts         519953                       # The number of squashed insts skipped by commit (Count)
system.cpu0.commit.commitNonSpecStalls           1110                       # The number of times commit has been forced to stall to communicate backwards (Count)
system.cpu0.commit.branchMispredicts             8566                       # The number of times a branch was mispredicted (Count)
system.cpu0.commit.numCommittedDist::samples    291170026                       # Number of insts commited each cycle (Count)
system.cpu0.commit.numCommittedDist::mean     0.316556                       # Number of insts commited each cycle (Count)
system.cpu0.commit.numCommittedDist::stdev     1.485933                       # Number of insts commited each cycle (Count)
system.cpu0.commit.numCommittedDist::underflows            0      0.00%      0.00% # Number of insts commited each cycle (Count)
system.cpu0.commit.numCommittedDist::0      275539860     94.63%     94.63% # Number of insts commited each cycle (Count)
system.cpu0.commit.numCommittedDist::1        2438204      0.84%     95.47% # Number of insts commited each cycle (Count)
system.cpu0.commit.numCommittedDist::2         388386      0.13%     95.60% # Number of insts commited each cycle (Count)
system.cpu0.commit.numCommittedDist::3        2297392      0.79%     96.39% # Number of insts commited each cycle (Count)
system.cpu0.commit.numCommittedDist::4         373818      0.13%     96.52% # Number of insts commited each cycle (Count)
system.cpu0.commit.numCommittedDist::5          31146      0.01%     96.53% # Number of insts commited each cycle (Count)
system.cpu0.commit.numCommittedDist::6          58807      0.02%     96.55% # Number of insts commited each cycle (Count)
system.cpu0.commit.numCommittedDist::7         278619      0.10%     96.65% # Number of insts commited each cycle (Count)
system.cpu0.commit.numCommittedDist::8        9763794      3.35%    100.00% # Number of insts commited each cycle (Count)
system.cpu0.commit.numCommittedDist::overflows            0      0.00%    100.00% # Number of insts commited each cycle (Count)
system.cpu0.commit.numCommittedDist::min_value            0                       # Number of insts commited each cycle (Count)
system.cpu0.commit.numCommittedDist::max_value            8                       # Number of insts commited each cycle (Count)
system.cpu0.commit.numCommittedDist::total    291170026                       # Number of insts commited each cycle (Count)
system.cpu0.commit.instsCommitted            49132425                       # Number of instructions committed (Count)
system.cpu0.commit.opsCommitted              92171681                       # Number of ops (including micro ops) committed (Count)
system.cpu0.commit.memRefs                   14576510                       # Number of memory references committed (Count)
system.cpu0.commit.loads                     12518122                       # Number of loads committed (Count)
system.cpu0.commit.amos                             0                       # Number of atomic instructions committed (Count)
system.cpu0.commit.membars                        584                       # Number of memory barriers committed (Count)
system.cpu0.commit.branches                   9898013                       # Number of branches committed (Count)
system.cpu0.commit.vectorInstructions               0                       # Number of committed Vector instructions. (Count)
system.cpu0.commit.floating                  42316101                       # Number of committed floating point instructions. (Count)
system.cpu0.commit.integer                   64094986                       # Number of committed integer instructions. (Count)
system.cpu0.commit.functionCalls                 8088                       # Number of function calls committed. (Count)
system.cpu0.commit.committedInstType_0::No_OpClass        12208      0.01%      0.01% # Class of committed instruction (Count)
system.cpu0.commit.committedInstType_0::IntAlu     51042798     55.38%     55.39% # Class of committed instruction (Count)
system.cpu0.commit.committedInstType_0::IntMult          272      0.00%     55.39% # Class of committed instruction (Count)
system.cpu0.commit.committedInstType_0::IntDiv         2698      0.00%     55.39% # Class of committed instruction (Count)
system.cpu0.commit.committedInstType_0::FloatAdd      6878273      7.46%     62.86% # Class of committed instruction (Count)
system.cpu0.commit.committedInstType_0::FloatCmp            0      0.00%     62.86% # Class of committed instruction (Count)
system.cpu0.commit.committedInstType_0::FloatCvt          416      0.00%     62.86% # Class of committed instruction (Count)
system.cpu0.commit.committedInstType_0::FloatMult            0      0.00%     62.86% # Class of committed instruction (Count)
system.cpu0.commit.committedInstType_0::FloatMultAcc            0      0.00%     62.86% # Class of committed instruction (Count)
system.cpu0.commit.committedInstType_0::FloatDiv            0      0.00%     62.86% # Class of committed instruction (Count)
system.cpu0.commit.committedInstType_0::FloatMisc            0      0.00%     62.86% # Class of committed instruction (Count)
system.cpu0.commit.committedInstType_0::FloatSqrt            0      0.00%     62.86% # Class of committed instruction (Count)
system.cpu0.commit.committedInstType_0::SimdAdd         1098      0.00%     62.86% # Class of committed instruction (Count)
system.cpu0.commit.committedInstType_0::SimdAddAcc            0      0.00%     62.86% # Class of committed instruction (Count)
system.cpu0.commit.committedInstType_0::SimdAlu        11810      0.01%     62.87% # Class of committed instruction (Count)
system.cpu0.commit.committedInstType_0::SimdCmp           66      0.00%     62.87% # Class of committed instruction (Count)
system.cpu0.commit.committedInstType_0::SimdCvt         3104      0.00%     62.87% # Class of committed instruction (Count)
system.cpu0.commit.committedInstType_0::SimdMisc         3324      0.00%     62.88% # Class of committed instruction (Count)
system.cpu0.commit.committedInstType_0::SimdMult            0      0.00%     62.88% # Class of committed instruction (Count)
system.cpu0.commit.committedInstType_0::SimdMultAcc            0      0.00%     62.88% # Class of committed instruction (Count)
system.cpu0.commit.committedInstType_0::SimdShift          507      0.00%     62.88% # Class of committed instruction (Count)
system.cpu0.commit.committedInstType_0::SimdShiftAcc            0      0.00%     62.88% # Class of committed instruction (Count)
system.cpu0.commit.committedInstType_0::SimdDiv            0      0.00%     62.88% # Class of committed instruction (Count)
system.cpu0.commit.committedInstType_0::SimdSqrt            0      0.00%     62.88% # Class of committed instruction (Count)
system.cpu0.commit.committedInstType_0::SimdFloatAdd     12879502     13.97%     76.85% # Class of committed instruction (Count)
system.cpu0.commit.committedInstType_0::SimdFloatAlu            0      0.00%     76.85% # Class of committed instruction (Count)
system.cpu0.commit.committedInstType_0::SimdFloatCmp           16      0.00%     76.85% # Class of committed instruction (Count)
system.cpu0.commit.committedInstType_0::SimdFloatCvt      6006786      6.52%     83.37% # Class of committed instruction (Count)
system.cpu0.commit.committedInstType_0::SimdFloatDiv           11      0.00%     83.37% # Class of committed instruction (Count)
system.cpu0.commit.committedInstType_0::SimdFloatMisc            0      0.00%     83.37% # Class of committed instruction (Count)
system.cpu0.commit.committedInstType_0::SimdFloatMult       752282      0.82%     84.19% # Class of committed instruction (Count)
system.cpu0.commit.committedInstType_0::SimdFloatMultAcc            0      0.00%     84.19% # Class of committed instruction (Count)
system.cpu0.commit.committedInstType_0::SimdFloatSqrt            0      0.00%     84.19% # Class of committed instruction (Count)
system.cpu0.commit.committedInstType_0::SimdReduceAdd            0      0.00%     84.19% # Class of committed instruction (Count)
system.cpu0.commit.committedInstType_0::SimdReduceAlu            0      0.00%     84.19% # Class of committed instruction (Count)
system.cpu0.commit.committedInstType_0::SimdReduceCmp            0      0.00%     84.19% # Class of committed instruction (Count)
system.cpu0.commit.committedInstType_0::SimdFloatReduceAdd            0      0.00%     84.19% # Class of committed instruction (Count)
system.cpu0.commit.committedInstType_0::SimdFloatReduceCmp            0      0.00%     84.19% # Class of committed instruction (Count)
system.cpu0.commit.committedInstType_0::SimdAes            0      0.00%     84.19% # Class of committed instruction (Count)
system.cpu0.commit.committedInstType_0::SimdAesMix            0      0.00%     84.19% # Class of committed instruction (Count)
system.cpu0.commit.committedInstType_0::SimdSha1Hash            0      0.00%     84.19% # Class of committed instruction (Count)
system.cpu0.commit.committedInstType_0::SimdSha1Hash2            0      0.00%     84.19% # Class of committed instruction (Count)
system.cpu0.commit.committedInstType_0::SimdSha256Hash            0      0.00%     84.19% # Class of committed instruction (Count)
system.cpu0.commit.committedInstType_0::SimdSha256Hash2            0      0.00%     84.19% # Class of committed instruction (Count)
system.cpu0.commit.committedInstType_0::SimdShaSigma2            0      0.00%     84.19% # Class of committed instruction (Count)
system.cpu0.commit.committedInstType_0::SimdShaSigma3            0      0.00%     84.19% # Class of committed instruction (Count)
system.cpu0.commit.committedInstType_0::SimdPredAlu            0      0.00%     84.19% # Class of committed instruction (Count)
system.cpu0.commit.committedInstType_0::MemRead       125829      0.14%     84.32% # Class of committed instruction (Count)
system.cpu0.commit.committedInstType_0::MemWrite       177043      0.19%     84.51% # Class of committed instruction (Count)
system.cpu0.commit.committedInstType_0::FloatMemRead     12392293     13.44%     97.96% # Class of committed instruction (Count)
system.cpu0.commit.committedInstType_0::FloatMemWrite      1881345      2.04%    100.00% # Class of committed instruction (Count)
system.cpu0.commit.committedInstType_0::IprAccess            0      0.00%    100.00% # Class of committed instruction (Count)
system.cpu0.commit.committedInstType_0::InstPrefetch            0      0.00%    100.00% # Class of committed instruction (Count)
system.cpu0.commit.committedInstType_0::total     92171681                       # Class of committed instruction (Count)
system.cpu0.commit.commitEligibleSamples      9763794                       # number cycles where commit BW limit reached (Cycle)
system.cpu0.dcache.demandHits::cpu00.data      8007888                       # number of demand (read+write) hits (Count)
system.cpu0.dcache.demandHits::total          8007888                       # number of demand (read+write) hits (Count)
system.cpu0.dcache.overallHits::cpu00.data      8007888                       # number of overall hits (Count)
system.cpu0.dcache.overallHits::total         8007888                       # number of overall hits (Count)
system.cpu0.dcache.demandMisses::cpu00.data      6618793                       # number of demand (read+write) misses (Count)
system.cpu0.dcache.demandMisses::total        6618793                       # number of demand (read+write) misses (Count)
system.cpu0.dcache.overallMisses::cpu00.data      6618793                       # number of overall misses (Count)
system.cpu0.dcache.overallMisses::total       6618793                       # number of overall misses (Count)
system.cpu0.dcache.demandMissLatency::cpu00.data 553499562648                       # number of demand (read+write) miss ticks (Tick)
system.cpu0.dcache.demandMissLatency::total 553499562648                       # number of demand (read+write) miss ticks (Tick)
system.cpu0.dcache.overallMissLatency::cpu00.data 553499562648                       # number of overall miss ticks (Tick)
system.cpu0.dcache.overallMissLatency::total 553499562648                       # number of overall miss ticks (Tick)
system.cpu0.dcache.demandAccesses::cpu00.data     14626681                       # number of demand (read+write) accesses (Count)
system.cpu0.dcache.demandAccesses::total     14626681                       # number of demand (read+write) accesses (Count)
system.cpu0.dcache.overallAccesses::cpu00.data     14626681                       # number of overall (read+write) accesses (Count)
system.cpu0.dcache.overallAccesses::total     14626681                       # number of overall (read+write) accesses (Count)
system.cpu0.dcache.demandMissRate::cpu00.data     0.452515                       # miss rate for demand accesses (Ratio)
system.cpu0.dcache.demandMissRate::total     0.452515                       # miss rate for demand accesses (Ratio)
system.cpu0.dcache.overallMissRate::cpu00.data     0.452515                       # miss rate for overall accesses (Ratio)
system.cpu0.dcache.overallMissRate::total     0.452515                       # miss rate for overall accesses (Ratio)
system.cpu0.dcache.demandAvgMissLatency::cpu00.data 83625.452956                       # average overall miss latency in ticks ((Tick/Count))
system.cpu0.dcache.demandAvgMissLatency::total 83625.452956                       # average overall miss latency in ticks ((Tick/Count))
system.cpu0.dcache.overallAvgMissLatency::cpu00.data 83625.452956                       # average overall miss latency ((Tick/Count))
system.cpu0.dcache.overallAvgMissLatency::total 83625.452956                       # average overall miss latency ((Tick/Count))
system.cpu0.dcache.blockedCycles::no_mshrs     38104500                       # number of cycles access was blocked (Cycle)
system.cpu0.dcache.blockedCycles::no_targets          170                       # number of cycles access was blocked (Cycle)
system.cpu0.dcache.blockedCauses::no_mshrs       158196                       # number of times access was blocked (Count)
system.cpu0.dcache.blockedCauses::no_targets            3                       # number of times access was blocked (Count)
system.cpu0.dcache.avgBlocked::no_mshrs    240.868922                       # average number of cycles each access was blocked ((Cycle/Count))
system.cpu0.dcache.avgBlocked::no_targets    56.666667                       # average number of cycles each access was blocked ((Cycle/Count))
system.cpu0.dcache.writebacks::writebacks       252997                       # number of writebacks (Count)
system.cpu0.dcache.writebacks::total           252997                       # number of writebacks (Count)
system.cpu0.dcache.demandMshrHits::cpu00.data      5330710                       # number of demand (read+write) MSHR hits (Count)
system.cpu0.dcache.demandMshrHits::total      5330710                       # number of demand (read+write) MSHR hits (Count)
system.cpu0.dcache.overallMshrHits::cpu00.data      5330710                       # number of overall MSHR hits (Count)
system.cpu0.dcache.overallMshrHits::total      5330710                       # number of overall MSHR hits (Count)
system.cpu0.dcache.demandMshrMisses::cpu00.data      1288083                       # number of demand (read+write) MSHR misses (Count)
system.cpu0.dcache.demandMshrMisses::total      1288083                       # number of demand (read+write) MSHR misses (Count)
system.cpu0.dcache.overallMshrMisses::cpu00.data      1288083                       # number of overall MSHR misses (Count)
system.cpu0.dcache.overallMshrMisses::total      1288083                       # number of overall MSHR misses (Count)
system.cpu0.dcache.demandMshrMissLatency::cpu00.data 184986497898                       # number of demand (read+write) MSHR miss ticks (Tick)
system.cpu0.dcache.demandMshrMissLatency::total 184986497898                       # number of demand (read+write) MSHR miss ticks (Tick)
system.cpu0.dcache.overallMshrMissLatency::cpu00.data 184986497898                       # number of overall MSHR miss ticks (Tick)
system.cpu0.dcache.overallMshrMissLatency::total 184986497898                       # number of overall MSHR miss ticks (Tick)
system.cpu0.dcache.demandMshrMissRate::cpu00.data     0.088064                       # mshr miss ratio for demand accesses (Ratio)
system.cpu0.dcache.demandMshrMissRate::total     0.088064                       # mshr miss ratio for demand accesses (Ratio)
system.cpu0.dcache.overallMshrMissRate::cpu00.data     0.088064                       # mshr miss ratio for overall accesses (Ratio)
system.cpu0.dcache.overallMshrMissRate::total     0.088064                       # mshr miss ratio for overall accesses (Ratio)
system.cpu0.dcache.demandAvgMshrMissLatency::cpu00.data 143613.802758                       # average overall mshr miss latency ((Tick/Count))
system.cpu0.dcache.demandAvgMshrMissLatency::total 143613.802758                       # average overall mshr miss latency ((Tick/Count))
system.cpu0.dcache.overallAvgMshrMissLatency::cpu00.data 143613.802758                       # average overall mshr miss latency ((Tick/Count))
system.cpu0.dcache.overallAvgMshrMissLatency::total 143613.802758                       # average overall mshr miss latency ((Tick/Count))
system.cpu0.dcache.replacements               1286712                       # number of replacements (Count)
system.cpu0.dcache.LockedRMWReadReq.hits::cpu00.data          258                       # number of LockedRMWReadReq hits (Count)
system.cpu0.dcache.LockedRMWReadReq.hits::total          258                       # number of LockedRMWReadReq hits (Count)
system.cpu0.dcache.LockedRMWReadReq.misses::cpu00.data           34                       # number of LockedRMWReadReq misses (Count)
system.cpu0.dcache.LockedRMWReadReq.misses::total           34                       # number of LockedRMWReadReq misses (Count)
system.cpu0.dcache.LockedRMWReadReq.missLatency::cpu00.data      1556500                       # number of LockedRMWReadReq miss ticks (Tick)
system.cpu0.dcache.LockedRMWReadReq.missLatency::total      1556500                       # number of LockedRMWReadReq miss ticks (Tick)
system.cpu0.dcache.LockedRMWReadReq.accesses::cpu00.data          292                       # number of LockedRMWReadReq accesses(hits+misses) (Count)
system.cpu0.dcache.LockedRMWReadReq.accesses::total          292                       # number of LockedRMWReadReq accesses(hits+misses) (Count)
system.cpu0.dcache.LockedRMWReadReq.missRate::cpu00.data     0.116438                       # miss rate for LockedRMWReadReq accesses (Ratio)
system.cpu0.dcache.LockedRMWReadReq.missRate::total     0.116438                       # miss rate for LockedRMWReadReq accesses (Ratio)
system.cpu0.dcache.LockedRMWReadReq.avgMissLatency::cpu00.data 45779.411765                       # average LockedRMWReadReq miss latency ((Tick/Count))
system.cpu0.dcache.LockedRMWReadReq.avgMissLatency::total 45779.411765                       # average LockedRMWReadReq miss latency ((Tick/Count))
system.cpu0.dcache.LockedRMWReadReq.mshrMisses::cpu00.data           34                       # number of LockedRMWReadReq MSHR misses (Count)
system.cpu0.dcache.LockedRMWReadReq.mshrMisses::total           34                       # number of LockedRMWReadReq MSHR misses (Count)
system.cpu0.dcache.LockedRMWReadReq.mshrMissLatency::cpu00.data      3718250                       # number of LockedRMWReadReq MSHR miss ticks (Tick)
system.cpu0.dcache.LockedRMWReadReq.mshrMissLatency::total      3718250                       # number of LockedRMWReadReq MSHR miss ticks (Tick)
system.cpu0.dcache.LockedRMWReadReq.mshrMissRate::cpu00.data     0.116438                       # mshr miss rate for LockedRMWReadReq accesses (Ratio)
system.cpu0.dcache.LockedRMWReadReq.mshrMissRate::total     0.116438                       # mshr miss rate for LockedRMWReadReq accesses (Ratio)
system.cpu0.dcache.LockedRMWReadReq.avgMshrMissLatency::cpu00.data 109360.294118                       # average LockedRMWReadReq mshr miss latency ((Tick/Count))
system.cpu0.dcache.LockedRMWReadReq.avgMshrMissLatency::total 109360.294118                       # average LockedRMWReadReq mshr miss latency ((Tick/Count))
system.cpu0.dcache.LockedRMWWriteReq.hits::cpu00.data          292                       # number of LockedRMWWriteReq hits (Count)
system.cpu0.dcache.LockedRMWWriteReq.hits::total          292                       # number of LockedRMWWriteReq hits (Count)
system.cpu0.dcache.LockedRMWWriteReq.accesses::cpu00.data          292                       # number of LockedRMWWriteReq accesses(hits+misses) (Count)
system.cpu0.dcache.LockedRMWWriteReq.accesses::total          292                       # number of LockedRMWWriteReq accesses(hits+misses) (Count)
system.cpu0.dcache.ReadReq.hits::cpu00.data      6186794                       # number of ReadReq hits (Count)
system.cpu0.dcache.ReadReq.hits::total        6186794                       # number of ReadReq hits (Count)
system.cpu0.dcache.ReadReq.misses::cpu00.data      6381774                       # number of ReadReq misses (Count)
system.cpu0.dcache.ReadReq.misses::total      6381774                       # number of ReadReq misses (Count)
system.cpu0.dcache.ReadReq.missLatency::cpu00.data 512266595750                       # number of ReadReq miss ticks (Tick)
system.cpu0.dcache.ReadReq.missLatency::total 512266595750                       # number of ReadReq miss ticks (Tick)
system.cpu0.dcache.ReadReq.accesses::cpu00.data     12568568                       # number of ReadReq accesses(hits+misses) (Count)
system.cpu0.dcache.ReadReq.accesses::total     12568568                       # number of ReadReq accesses(hits+misses) (Count)
system.cpu0.dcache.ReadReq.missRate::cpu00.data     0.507757                       # miss rate for ReadReq accesses (Ratio)
system.cpu0.dcache.ReadReq.missRate::total     0.507757                       # miss rate for ReadReq accesses (Ratio)
system.cpu0.dcache.ReadReq.avgMissLatency::cpu00.data 80270.250208                       # average ReadReq miss latency ((Tick/Count))
system.cpu0.dcache.ReadReq.avgMissLatency::total 80270.250208                       # average ReadReq miss latency ((Tick/Count))
system.cpu0.dcache.ReadReq.mshrHits::cpu00.data      5330696                       # number of ReadReq MSHR hits (Count)
system.cpu0.dcache.ReadReq.mshrHits::total      5330696                       # number of ReadReq MSHR hits (Count)
system.cpu0.dcache.ReadReq.mshrMisses::cpu00.data      1051078                       # number of ReadReq MSHR misses (Count)
system.cpu0.dcache.ReadReq.mshrMisses::total      1051078                       # number of ReadReq MSHR misses (Count)
system.cpu0.dcache.ReadReq.mshrMissLatency::cpu00.data 143873019500                       # number of ReadReq MSHR miss ticks (Tick)
system.cpu0.dcache.ReadReq.mshrMissLatency::total 143873019500                       # number of ReadReq MSHR miss ticks (Tick)
system.cpu0.dcache.ReadReq.mshrMissRate::cpu00.data     0.083628                       # mshr miss rate for ReadReq accesses (Ratio)
system.cpu0.dcache.ReadReq.mshrMissRate::total     0.083628                       # mshr miss rate for ReadReq accesses (Ratio)
system.cpu0.dcache.ReadReq.avgMshrMissLatency::cpu00.data 136881.391771                       # average ReadReq mshr miss latency ((Tick/Count))
system.cpu0.dcache.ReadReq.avgMshrMissLatency::total 136881.391771                       # average ReadReq mshr miss latency ((Tick/Count))
system.cpu0.dcache.WriteReq.hits::cpu00.data      1821094                       # number of WriteReq hits (Count)
system.cpu0.dcache.WriteReq.hits::total       1821094                       # number of WriteReq hits (Count)
system.cpu0.dcache.WriteReq.misses::cpu00.data       237019                       # number of WriteReq misses (Count)
system.cpu0.dcache.WriteReq.misses::total       237019                       # number of WriteReq misses (Count)
system.cpu0.dcache.WriteReq.missLatency::cpu00.data  41232966898                       # number of WriteReq miss ticks (Tick)
system.cpu0.dcache.WriteReq.missLatency::total  41232966898                       # number of WriteReq miss ticks (Tick)
system.cpu0.dcache.WriteReq.accesses::cpu00.data      2058113                       # number of WriteReq accesses(hits+misses) (Count)
system.cpu0.dcache.WriteReq.accesses::total      2058113                       # number of WriteReq accesses(hits+misses) (Count)
system.cpu0.dcache.WriteReq.missRate::cpu00.data     0.115163                       # miss rate for WriteReq accesses (Ratio)
system.cpu0.dcache.WriteReq.missRate::total     0.115163                       # miss rate for WriteReq accesses (Ratio)
system.cpu0.dcache.WriteReq.avgMissLatency::cpu00.data 173964.816736                       # average WriteReq miss latency ((Tick/Count))
system.cpu0.dcache.WriteReq.avgMissLatency::total 173964.816736                       # average WriteReq miss latency ((Tick/Count))
system.cpu0.dcache.WriteReq.mshrHits::cpu00.data           14                       # number of WriteReq MSHR hits (Count)
system.cpu0.dcache.WriteReq.mshrHits::total           14                       # number of WriteReq MSHR hits (Count)
system.cpu0.dcache.WriteReq.mshrMisses::cpu00.data       237005                       # number of WriteReq MSHR misses (Count)
system.cpu0.dcache.WriteReq.mshrMisses::total       237005                       # number of WriteReq MSHR misses (Count)
system.cpu0.dcache.WriteReq.mshrMissLatency::cpu00.data  41113478398                       # number of WriteReq MSHR miss ticks (Tick)
system.cpu0.dcache.WriteReq.mshrMissLatency::total  41113478398                       # number of WriteReq MSHR miss ticks (Tick)
system.cpu0.dcache.WriteReq.mshrMissRate::cpu00.data     0.115156                       # mshr miss rate for WriteReq accesses (Ratio)
system.cpu0.dcache.WriteReq.mshrMissRate::total     0.115156                       # mshr miss rate for WriteReq accesses (Ratio)
system.cpu0.dcache.WriteReq.avgMshrMissLatency::cpu00.data 173470.932672                       # average WriteReq mshr miss latency ((Tick/Count))
system.cpu0.dcache.WriteReq.avgMshrMissLatency::total 173470.932672                       # average WriteReq mshr miss latency ((Tick/Count))
system.cpu0.dcache.power_state.pwrStateResidencyTicks::UNDEFINED  72910510250                       # Cumulative time (in ticks) in various power states (Tick)
system.cpu0.dcache.tags.tagsInUse         1023.095770                       # Average ticks per tags in use ((Tick/Count))
system.cpu0.dcache.tags.totalRefs             9296562                       # Total number of references to valid blocks. (Count)
system.cpu0.dcache.tags.sampledRefs           1288012                       # Sample count of references to valid blocks. (Count)
system.cpu0.dcache.tags.avgRefs              7.217760                       # Average number of references to valid blocks. ((Count/Count))
system.cpu0.dcache.tags.warmupTick             168250                       # The tick when the warmup percentage was hit. (Tick)
system.cpu0.dcache.tags.occupancies::cpu00.data  1023.095770                       # Average occupied blocks per tick, per requestor ((Count/Tick))
system.cpu0.dcache.tags.avgOccs::cpu00.data     0.999117                       # Average percentage of cache occupancy ((Ratio/Tick))
system.cpu0.dcache.tags.avgOccs::total       0.999117                       # Average percentage of cache occupancy ((Ratio/Tick))
system.cpu0.dcache.tags.occupanciesTaskId::1024         1024                       # Occupied blocks per task id (Count)
system.cpu0.dcache.tags.ageTaskId_1024::0          126                       # Occupied blocks per task id, per block age (Count)
system.cpu0.dcache.tags.ageTaskId_1024::1          898                       # Occupied blocks per task id, per block age (Count)
system.cpu0.dcache.tags.ratioOccsTaskId::1024            1                       # Ratio of occupied blocks and all blocks, per task id (Ratio)
system.cpu0.dcache.tags.tagAccesses          30542542                       # Number of tag accesses (Count)
system.cpu0.dcache.tags.dataAccesses         30542542                       # Number of data accesses (Count)
system.cpu0.dcache.tags.power_state.pwrStateResidencyTicks::UNDEFINED  72910510250                       # Cumulative time (in ticks) in various power states (Tick)
system.cpu0.decode.idleCycles                 4375940                       # Number of cycles decode is idle (Cycle)
system.cpu0.decode.blockedCycles            274498987                       # Number of cycles decode is blocked (Cycle)
system.cpu0.decode.runCycles                  9246383                       # Number of cycles decode is running (Cycle)
system.cpu0.decode.unblockCycles              3111917                       # Number of cycles decode is unblocking (Cycle)
system.cpu0.decode.squashCycles                 11425                       # Number of cycles decode is squashing (Cycle)
system.cpu0.decode.branchResolved             3844544                       # Number of times decode resolved a branch (Count)
system.cpu0.decode.branchMispred                 1208                       # Number of times decode detected a branch misprediction (Count)
system.cpu0.decode.decodedInsts              92919967                       # Number of instructions handled by decode (Count)
system.cpu0.decode.squashedInsts                 5596                       # Number of squashed instructions handled by decode (Count)
system.cpu0.dtb_walker_cache.blockedCycles::no_mshrs            0                       # number of cycles access was blocked (Cycle)
system.cpu0.dtb_walker_cache.blockedCycles::no_targets            0                       # number of cycles access was blocked (Cycle)
system.cpu0.dtb_walker_cache.blockedCauses::no_mshrs            0                       # number of times access was blocked (Count)
system.cpu0.dtb_walker_cache.blockedCauses::no_targets            0                       # number of times access was blocked (Count)
system.cpu0.dtb_walker_cache.avgBlocked::no_mshrs          nan                       # average number of cycles each access was blocked ((Cycle/Count))
system.cpu0.dtb_walker_cache.avgBlocked::no_targets          nan                       # average number of cycles each access was blocked ((Cycle/Count))
system.cpu0.dtb_walker_cache.replacements            0                       # number of replacements (Count)
system.cpu0.dtb_walker_cache.power_state.pwrStateResidencyTicks::UNDEFINED  72910510250                       # Cumulative time (in ticks) in various power states (Tick)
system.cpu0.dtb_walker_cache.tags.tagsInUse            0                       # Average ticks per tags in use ((Tick/Count))
system.cpu0.dtb_walker_cache.tags.totalRefs            0                       # Total number of references to valid blocks. (Count)
system.cpu0.dtb_walker_cache.tags.sampledRefs            0                       # Sample count of references to valid blocks. (Count)
system.cpu0.dtb_walker_cache.tags.avgRefs          nan                       # Average number of references to valid blocks. ((Count/Count))
system.cpu0.dtb_walker_cache.tags.warmupTick            0                       # The tick when the warmup percentage was hit. (Tick)
system.cpu0.dtb_walker_cache.tags.tagAccesses            0                       # Number of tag accesses (Count)
system.cpu0.dtb_walker_cache.tags.dataAccesses            0                       # Number of data accesses (Count)
system.cpu0.dtb_walker_cache.tags.power_state.pwrStateResidencyTicks::UNDEFINED  72910510250                       # Cumulative time (in ticks) in various power states (Tick)
system.cpu0.fetch.icacheStallCycles           5513909                       # Number of cycles fetch is stalled on an Icache miss (Cycle)
system.cpu0.fetch.insts                      49578937                       # Number of instructions fetch has processed (Count)
system.cpu0.fetch.branches                    9997445                       # Number of branches that fetch encountered (Count)
system.cpu0.fetch.predictedBranches           3872520                       # Number of branches that fetch has predicted taken (Count)
system.cpu0.fetch.cycles                    285711644                       # Number of cycles fetch has run and was not squashing or blocked (Cycle)
system.cpu0.fetch.squashCycles                  25220                       # Number of cycles fetch has spent squashing (Cycle)
system.cpu0.fetch.miscStallCycles                 800                       # Number of cycles fetch has spent waiting on interrupts, or bad addresses, or out of MSHRs (Cycle)
system.cpu0.fetch.pendingTrapStallCycles         5501                       # Number of stall cycles due to pending traps (Cycle)
system.cpu0.fetch.icacheWaitRetryStallCycles          188                       # Number of stall cycles due to full MSHR (Cycle)
system.cpu0.fetch.cacheLines                  5378338                       # Number of cache lines fetched (Count)
system.cpu0.fetch.icacheSquashes                 3420                       # Number of outstanding Icache misses that were squashed (Count)
system.cpu0.fetch.nisnDist::samples         291244652                       # Number of instructions fetched each cycle (Total) (Count)
system.cpu0.fetch.nisnDist::mean             0.319442                       # Number of instructions fetched each cycle (Total) (Count)
system.cpu0.fetch.nisnDist::stdev            1.473398                       # Number of instructions fetched each cycle (Total) (Count)
system.cpu0.fetch.nisnDist::underflows              0      0.00%      0.00% # Number of instructions fetched each cycle (Total) (Count)
system.cpu0.fetch.nisnDist::0               276214823     94.84%     94.84% # Number of instructions fetched each cycle (Total) (Count)
system.cpu0.fetch.nisnDist::1                  740300      0.25%     95.09% # Number of instructions fetched each cycle (Total) (Count)
system.cpu0.fetch.nisnDist::2                  559970      0.19%     95.29% # Number of instructions fetched each cycle (Total) (Count)
system.cpu0.fetch.nisnDist::3                 1071558      0.37%     95.65% # Number of instructions fetched each cycle (Total) (Count)
system.cpu0.fetch.nisnDist::4                 3178676      1.09%     96.75% # Number of instructions fetched each cycle (Total) (Count)
system.cpu0.fetch.nisnDist::5                   79792      0.03%     96.77% # Number of instructions fetched each cycle (Total) (Count)
system.cpu0.fetch.nisnDist::6                   86233      0.03%     96.80% # Number of instructions fetched each cycle (Total) (Count)
system.cpu0.fetch.nisnDist::7                  176724      0.06%     96.86% # Number of instructions fetched each cycle (Total) (Count)
system.cpu0.fetch.nisnDist::8                 9136576      3.14%    100.00% # Number of instructions fetched each cycle (Total) (Count)
system.cpu0.fetch.nisnDist::overflows               0      0.00%    100.00% # Number of instructions fetched each cycle (Total) (Count)
system.cpu0.fetch.nisnDist::min_value               0                       # Number of instructions fetched each cycle (Total) (Count)
system.cpu0.fetch.nisnDist::max_value               8                       # Number of instructions fetched each cycle (Total) (Count)
system.cpu0.fetch.nisnDist::total           291244652                       # Number of instructions fetched each cycle (Total) (Count)
system.cpu0.fetch.branchRate                 0.034280                       # Number of branch fetches per cycle (Ratio)
system.cpu0.fetch.rate                       0.169999                       # Number of inst fetches per cycle ((Count/Cycle))
system.cpu0.icache.demandHits::cpu00.inst      5374516                       # number of demand (read+write) hits (Count)
system.cpu0.icache.demandHits::total          5374516                       # number of demand (read+write) hits (Count)
system.cpu0.icache.overallHits::cpu00.inst      5374516                       # number of overall hits (Count)
system.cpu0.icache.overallHits::total         5374516                       # number of overall hits (Count)
system.cpu0.icache.demandMisses::cpu00.inst         3822                       # number of demand (read+write) misses (Count)
system.cpu0.icache.demandMisses::total           3822                       # number of demand (read+write) misses (Count)
system.cpu0.icache.overallMisses::cpu00.inst         3822                       # number of overall misses (Count)
system.cpu0.icache.overallMisses::total          3822                       # number of overall misses (Count)
system.cpu0.icache.demandMissLatency::cpu00.inst    241206749                       # number of demand (read+write) miss ticks (Tick)
system.cpu0.icache.demandMissLatency::total    241206749                       # number of demand (read+write) miss ticks (Tick)
system.cpu0.icache.overallMissLatency::cpu00.inst    241206749                       # number of overall miss ticks (Tick)
system.cpu0.icache.overallMissLatency::total    241206749                       # number of overall miss ticks (Tick)
system.cpu0.icache.demandAccesses::cpu00.inst      5378338                       # number of demand (read+write) accesses (Count)
system.cpu0.icache.demandAccesses::total      5378338                       # number of demand (read+write) accesses (Count)
system.cpu0.icache.overallAccesses::cpu00.inst      5378338                       # number of overall (read+write) accesses (Count)
system.cpu0.icache.overallAccesses::total      5378338                       # number of overall (read+write) accesses (Count)
system.cpu0.icache.demandMissRate::cpu00.inst     0.000711                       # miss rate for demand accesses (Ratio)
system.cpu0.icache.demandMissRate::total     0.000711                       # miss rate for demand accesses (Ratio)
system.cpu0.icache.overallMissRate::cpu00.inst     0.000711                       # miss rate for overall accesses (Ratio)
system.cpu0.icache.overallMissRate::total     0.000711                       # miss rate for overall accesses (Ratio)
system.cpu0.icache.demandAvgMissLatency::cpu00.inst 63110.086081                       # average overall miss latency in ticks ((Tick/Count))
system.cpu0.icache.demandAvgMissLatency::total 63110.086081                       # average overall miss latency in ticks ((Tick/Count))
system.cpu0.icache.overallAvgMissLatency::cpu00.inst 63110.086081                       # average overall miss latency ((Tick/Count))
system.cpu0.icache.overallAvgMissLatency::total 63110.086081                       # average overall miss latency ((Tick/Count))
system.cpu0.icache.blockedCycles::no_mshrs         2010                       # number of cycles access was blocked (Cycle)
system.cpu0.icache.blockedCycles::no_targets            0                       # number of cycles access was blocked (Cycle)
system.cpu0.icache.blockedCauses::no_mshrs           11                       # number of times access was blocked (Count)
system.cpu0.icache.blockedCauses::no_targets            0                       # number of times access was blocked (Count)
system.cpu0.icache.avgBlocked::no_mshrs    182.727273                       # average number of cycles each access was blocked ((Cycle/Count))
system.cpu0.icache.avgBlocked::no_targets          nan                       # average number of cycles each access was blocked ((Cycle/Count))
system.cpu0.icache.writebacks::writebacks         2525                       # number of writebacks (Count)
system.cpu0.icache.writebacks::total             2525                       # number of writebacks (Count)
system.cpu0.icache.demandMshrHits::cpu00.inst          772                       # number of demand (read+write) MSHR hits (Count)
system.cpu0.icache.demandMshrHits::total          772                       # number of demand (read+write) MSHR hits (Count)
system.cpu0.icache.overallMshrHits::cpu00.inst          772                       # number of overall MSHR hits (Count)
system.cpu0.icache.overallMshrHits::total          772                       # number of overall MSHR hits (Count)
system.cpu0.icache.demandMshrMisses::cpu00.inst         3050                       # number of demand (read+write) MSHR misses (Count)
system.cpu0.icache.demandMshrMisses::total         3050                       # number of demand (read+write) MSHR misses (Count)
system.cpu0.icache.overallMshrMisses::cpu00.inst         3050                       # number of overall MSHR misses (Count)
system.cpu0.icache.overallMshrMisses::total         3050                       # number of overall MSHR misses (Count)
system.cpu0.icache.demandMshrMissLatency::cpu00.inst    190277999                       # number of demand (read+write) MSHR miss ticks (Tick)
system.cpu0.icache.demandMshrMissLatency::total    190277999                       # number of demand (read+write) MSHR miss ticks (Tick)
system.cpu0.icache.overallMshrMissLatency::cpu00.inst    190277999                       # number of overall MSHR miss ticks (Tick)
system.cpu0.icache.overallMshrMissLatency::total    190277999                       # number of overall MSHR miss ticks (Tick)
system.cpu0.icache.demandMshrMissRate::cpu00.inst     0.000567                       # mshr miss ratio for demand accesses (Ratio)
system.cpu0.icache.demandMshrMissRate::total     0.000567                       # mshr miss ratio for demand accesses (Ratio)
system.cpu0.icache.overallMshrMissRate::cpu00.inst     0.000567                       # mshr miss ratio for overall accesses (Ratio)
system.cpu0.icache.overallMshrMissRate::total     0.000567                       # mshr miss ratio for overall accesses (Ratio)
system.cpu0.icache.demandAvgMshrMissLatency::cpu00.inst 62386.229180                       # average overall mshr miss latency ((Tick/Count))
system.cpu0.icache.demandAvgMshrMissLatency::total 62386.229180                       # average overall mshr miss latency ((Tick/Count))
system.cpu0.icache.overallAvgMshrMissLatency::cpu00.inst 62386.229180                       # average overall mshr miss latency ((Tick/Count))
system.cpu0.icache.overallAvgMshrMissLatency::total 62386.229180                       # average overall mshr miss latency ((Tick/Count))
system.cpu0.icache.replacements                  2525                       # number of replacements (Count)
system.cpu0.icache.ReadReq.hits::cpu00.inst      5374516                       # number of ReadReq hits (Count)
system.cpu0.icache.ReadReq.hits::total        5374516                       # number of ReadReq hits (Count)
system.cpu0.icache.ReadReq.misses::cpu00.inst         3822                       # number of ReadReq misses (Count)
system.cpu0.icache.ReadReq.misses::total         3822                       # number of ReadReq misses (Count)
system.cpu0.icache.ReadReq.missLatency::cpu00.inst    241206749                       # number of ReadReq miss ticks (Tick)
system.cpu0.icache.ReadReq.missLatency::total    241206749                       # number of ReadReq miss ticks (Tick)
system.cpu0.icache.ReadReq.accesses::cpu00.inst      5378338                       # number of ReadReq accesses(hits+misses) (Count)
system.cpu0.icache.ReadReq.accesses::total      5378338                       # number of ReadReq accesses(hits+misses) (Count)
system.cpu0.icache.ReadReq.missRate::cpu00.inst     0.000711                       # miss rate for ReadReq accesses (Ratio)
system.cpu0.icache.ReadReq.missRate::total     0.000711                       # miss rate for ReadReq accesses (Ratio)
system.cpu0.icache.ReadReq.avgMissLatency::cpu00.inst 63110.086081                       # average ReadReq miss latency ((Tick/Count))
system.cpu0.icache.ReadReq.avgMissLatency::total 63110.086081                       # average ReadReq miss latency ((Tick/Count))
system.cpu0.icache.ReadReq.mshrHits::cpu00.inst          772                       # number of ReadReq MSHR hits (Count)
system.cpu0.icache.ReadReq.mshrHits::total          772                       # number of ReadReq MSHR hits (Count)
system.cpu0.icache.ReadReq.mshrMisses::cpu00.inst         3050                       # number of ReadReq MSHR misses (Count)
system.cpu0.icache.ReadReq.mshrMisses::total         3050                       # number of ReadReq MSHR misses (Count)
system.cpu0.icache.ReadReq.mshrMissLatency::cpu00.inst    190277999                       # number of ReadReq MSHR miss ticks (Tick)
system.cpu0.icache.ReadReq.mshrMissLatency::total    190277999                       # number of ReadReq MSHR miss ticks (Tick)
system.cpu0.icache.ReadReq.mshrMissRate::cpu00.inst     0.000567                       # mshr miss rate for ReadReq accesses (Ratio)
system.cpu0.icache.ReadReq.mshrMissRate::total     0.000567                       # mshr miss rate for ReadReq accesses (Ratio)
system.cpu0.icache.ReadReq.avgMshrMissLatency::cpu00.inst 62386.229180                       # average ReadReq mshr miss latency ((Tick/Count))
system.cpu0.icache.ReadReq.avgMshrMissLatency::total 62386.229180                       # average ReadReq mshr miss latency ((Tick/Count))
system.cpu0.icache.power_state.pwrStateResidencyTicks::UNDEFINED  72910510250                       # Cumulative time (in ticks) in various power states (Tick)
system.cpu0.icache.tags.tagsInUse          509.672460                       # Average ticks per tags in use ((Tick/Count))
system.cpu0.icache.tags.totalRefs             5377565                       # Total number of references to valid blocks. (Count)
system.cpu0.icache.tags.sampledRefs              3049                       # Sample count of references to valid blocks. (Count)
system.cpu0.icache.tags.avgRefs           1763.714333                       # Average number of references to valid blocks. ((Count/Count))
system.cpu0.icache.tags.warmupTick              85250                       # The tick when the warmup percentage was hit. (Tick)
system.cpu0.icache.tags.occupancies::cpu00.inst   509.672460                       # Average occupied blocks per tick, per requestor ((Count/Tick))
system.cpu0.icache.tags.avgOccs::cpu00.inst     0.995454                       # Average percentage of cache occupancy ((Ratio/Tick))
system.cpu0.icache.tags.avgOccs::total       0.995454                       # Average percentage of cache occupancy ((Ratio/Tick))
system.cpu0.icache.tags.occupanciesTaskId::1024          510                       # Occupied blocks per task id (Count)
system.cpu0.icache.tags.ageTaskId_1024::0          127                       # Occupied blocks per task id, per block age (Count)
system.cpu0.icache.tags.ageTaskId_1024::1           85                       # Occupied blocks per task id, per block age (Count)
system.cpu0.icache.tags.ageTaskId_1024::4          298                       # Occupied blocks per task id, per block age (Count)
system.cpu0.icache.tags.ratioOccsTaskId::1024     0.996094                       # Ratio of occupied blocks and all blocks, per task id (Ratio)
system.cpu0.icache.tags.tagAccesses          10759725                       # Number of tag accesses (Count)
system.cpu0.icache.tags.dataAccesses         10759725                       # Number of data accesses (Count)
system.cpu0.icache.tags.power_state.pwrStateResidencyTicks::UNDEFINED  72910510250                       # Cumulative time (in ticks) in various power states (Tick)
system.cpu0.iew.idleCycles                          0                       # Number of cycles IEW is idle (Cycle)
system.cpu0.iew.squashCycles                    11425                       # Number of cycles IEW is squashing (Cycle)
system.cpu0.iew.blockCycles                  69435904                       # Number of cycles IEW is blocking (Cycle)
system.cpu0.iew.unblockCycles                18064229                       # Number of cycles IEW is unblocking (Cycle)
system.cpu0.iew.dispatchedInsts              92803333                       # Number of instructions dispatched to IQ (Count)
system.cpu0.iew.dispSquashedInsts                 942                       # Number of squashed instructions skipped by dispatch (Count)
system.cpu0.iew.dispLoadInsts                12608382                       # Number of dispatched load instructions (Count)
system.cpu0.iew.dispStoreInsts                2084549                       # Number of dispatched store instructions (Count)
system.cpu0.iew.dispNonSpecInsts                  727                       # Number of dispatched non-speculative instructions (Count)
system.cpu0.iew.iqFullEvents                     2825                       # Number of times the IQ has become full, causing a stall (Count)
system.cpu0.iew.lsqFullEvents                17720931                       # Number of times the LSQ has become full, causing a stall (Count)
system.cpu0.iew.memOrderViolationEvents           241                       # Number of memory order violations (Count)
system.cpu0.iew.predictedTakenIncorrect          2847                       # Number of branches that were predicted taken incorrectly (Count)
system.cpu0.iew.predictedNotTakenIncorrect         7496                       # Number of branches that were predicted not taken incorrectly (Count)
system.cpu0.iew.branchMispredicts               10343                       # Number of branch mispredicts detected at execute (Count)
system.cpu0.iew.instsToCommit                92635731                       # Cumulative count of insts sent to commit (Count)
system.cpu0.iew.writebackCount               92626220                       # Cumulative count of insts written-back (Count)
system.cpu0.iew.producerInst                 68715855                       # Number of instructions producing a value (Count)
system.cpu0.iew.consumerInst                115422172                       # Number of instructions consuming a value (Count)
system.cpu0.iew.wbRate                       0.317602                       # Insts written-back per cycle ((Count/Cycle))
system.cpu0.iew.wbFanout                     0.595344                       # Average fanout of values written-back ((Count/Count))
system.cpu0.interrupts.clk_domain.clock          4000                       # Clock period in ticks (Tick)
system.cpu0.itb_walker_cache.blockedCycles::no_mshrs            0                       # number of cycles access was blocked (Cycle)
system.cpu0.itb_walker_cache.blockedCycles::no_targets            0                       # number of cycles access was blocked (Cycle)
system.cpu0.itb_walker_cache.blockedCauses::no_mshrs            0                       # number of times access was blocked (Count)
system.cpu0.itb_walker_cache.blockedCauses::no_targets            0                       # number of times access was blocked (Count)
system.cpu0.itb_walker_cache.avgBlocked::no_mshrs          nan                       # average number of cycles each access was blocked ((Cycle/Count))
system.cpu0.itb_walker_cache.avgBlocked::no_targets          nan                       # average number of cycles each access was blocked ((Cycle/Count))
system.cpu0.itb_walker_cache.replacements            0                       # number of replacements (Count)
system.cpu0.itb_walker_cache.power_state.pwrStateResidencyTicks::UNDEFINED  72910510250                       # Cumulative time (in ticks) in various power states (Tick)
system.cpu0.itb_walker_cache.tags.tagsInUse            0                       # Average ticks per tags in use ((Tick/Count))
system.cpu0.itb_walker_cache.tags.totalRefs            0                       # Total number of references to valid blocks. (Count)
[...]
system.tol2bus.pktSize_system.cpu08.dcache.mem_side_port::system.l2.cpu_side_port     49997376                       # Cumulative packet size per connected requestor and responder (Byte)
system.tol2bus.pktSize_system.cpu09.icache.mem_side_port::system.l2.cpu_side_port         4480                       # Cumulative packet size per connected requestor and responder (Byte)
system.tol2bus.pktSize_system.cpu09.dcache.mem_side_port::system.l2.cpu_side_port     49994944                       # Cumulative packet size per connected requestor and responder (Byte)
system.tol2bus.pktSize_system.cpu10.icache.mem_side_port::system.l2.cpu_side_port         4416                       # Cumulative packet size per connected requestor and responder (Byte)
system.tol2bus.pktSize_system.cpu10.dcache.mem_side_port::system.l2.cpu_side_port     49995008                       # Cumulative packet size per connected requestor and responder (Byte)
system.tol2bus.pktSize_system.cpu11.icache.mem_side_port::system.l2.cpu_side_port         4608                       # Cumulative packet size per connected requestor and responder (Byte)
system.tol2bus.pktSize_system.cpu11.dcache.mem_side_port::system.l2.cpu_side_port     49995136                       # Cumulative packet size per connected requestor and responder (Byte)
system.tol2bus.pktSize_system.cpu12.icache.mem_side_port::system.l2.cpu_side_port         4416                       # Cumulative packet size per connected requestor and responder (Byte)
system.tol2bus.pktSize_system.cpu12.dcache.mem_side_port::system.l2.cpu_side_port     49995008                       # Cumulative packet size per connected requestor and responder (Byte)
system.tol2bus.pktSize_system.cpu13.icache.mem_side_port::system.l2.cpu_side_port         4160                       # Cumulative packet size per connected requestor and responder (Byte)
system.tol2bus.pktSize_system.cpu13.dcache.mem_side_port::system.l2.cpu_side_port     49994496                       # Cumulative packet size per connected requestor and responder (Byte)
system.tol2bus.pktSize_system.cpu14.icache.mem_side_port::system.l2.cpu_side_port         4160                       # Cumulative packet size per connected requestor and responder (Byte)
system.tol2bus.pktSize_system.cpu14.dcache.mem_side_port::system.l2.cpu_side_port     49994560                       # Cumulative packet size per connected requestor and responder (Byte)
system.tol2bus.pktSize_system.cpu15.icache.mem_side_port::system.l2.cpu_side_port         4608                       # Cumulative packet size per connected requestor and responder (Byte)
system.tol2bus.pktSize_system.cpu15.dcache.mem_side_port::system.l2.cpu_side_port     49994688                       # Cumulative packet size per connected requestor and responder (Byte)
system.tol2bus.pktSize::total               848712704                       # Cumulative packet size per connected requestor and responder (Byte)
system.tol2bus.snoops                        10395574                       # Total snoops (Count)
system.tol2bus.snoopTraffic                 256371584                       # Total snoop traffic (Byte)
system.tol2bus.snoopFanout::samples          23653564                       # Request fanout histogram (Count)
system.tol2bus.snoopFanout::mean             0.094436                       # Request fanout histogram (Count)
system.tol2bus.snoopFanout::stdev            0.320067                       # Request fanout histogram (Count)
system.tol2bus.snoopFanout::underflows              0      0.00%      0.00% # Request fanout histogram (Count)
system.tol2bus.snoopFanout::0                21454101     90.70%     90.70% # Request fanout histogram (Count)
system.tol2bus.snoopFanout::1                 2195031      9.28%     99.98% # Request fanout histogram (Count)
system.tol2bus.snoopFanout::2                     688      0.00%     99.98% # Request fanout histogram (Count)
system.tol2bus.snoopFanout::3                     250      0.00%     99.99% # Request fanout histogram (Count)
system.tol2bus.snoopFanout::4                     247      0.00%     99.99% # Request fanout histogram (Count)
system.tol2bus.snoopFanout::5                     240      0.00%     99.99% # Request fanout histogram (Count)
system.tol2bus.snoopFanout::6                     244      0.00%     99.99% # Request fanout histogram (Count)
system.tol2bus.snoopFanout::7                     241      0.00%     99.99% # Request fanout histogram (Count)
system.tol2bus.snoopFanout::8                     238      0.00%     99.99% # Request fanout histogram (Count)
system.tol2bus.snoopFanout::9                     237      0.00%     99.99% # Request fanout histogram (Count)
system.tol2bus.snoopFanout::10                    239      0.00%     99.99% # Request fanout histogram (Count)
system.tol2bus.snoopFanout::11                    244      0.00%     99.99% # Request fanout histogram (Count)
system.tol2bus.snoopFanout::12                    234      0.00%     99.99% # Request fanout histogram (Count)
system.tol2bus.snoopFanout::13                    220      0.00%    100.00% # Request fanout histogram (Count)
system.tol2bus.snoopFanout::14                    242      0.00%    100.00% # Request fanout histogram (Count)
system.tol2bus.snoopFanout::15                    803      0.00%    100.00% # Request fanout histogram (Count)
system.tol2bus.snoopFanout::16                     64      0.00%    100.00% # Request fanout histogram (Count)
system.tol2bus.snoopFanout::17                      1      0.00%    100.00% # Request fanout histogram (Count)
system.tol2bus.snoopFanout::18                      0      0.00%    100.00% # Request fanout histogram (Count)
system.tol2bus.snoopFanout::19                      0      0.00%    100.00% # Request fanout histogram (Count)
system.tol2bus.snoopFanout::20                      0      0.00%    100.00% # Request fanout histogram (Count)
system.tol2bus.snoopFanout::21                      0      0.00%    100.00% # Request fanout histogram (Count)
system.tol2bus.snoopFanout::22                      0      0.00%    100.00% # Request fanout histogram (Count)
system.tol2bus.snoopFanout::23                      0      0.00%    100.00% # Request fanout histogram (Count)
system.tol2bus.snoopFanout::24                      0      0.00%    100.00% # Request fanout histogram (Count)
system.tol2bus.snoopFanout::25                      0      0.00%    100.00% # Request fanout histogram (Count)
system.tol2bus.snoopFanout::26                      0      0.00%    100.00% # Request fanout histogram (Count)
system.tol2bus.snoopFanout::27                      0      0.00%    100.00% # Request fanout histogram (Count)
system.tol2bus.snoopFanout::28                      0      0.00%    100.00% # Request fanout histogram (Count)
system.tol2bus.snoopFanout::29                      0      0.00%    100.00% # Request fanout histogram (Count)
system.tol2bus.snoopFanout::30                      0      0.00%    100.00% # Request fanout histogram (Count)
system.tol2bus.snoopFanout::31                      0      0.00%    100.00% # Request fanout histogram (Count)
system.tol2bus.snoopFanout::32                      0      0.00%    100.00% # Request fanout histogram (Count)
system.tol2bus.snoopFanout::33                      0      0.00%    100.00% # Request fanout histogram (Count)
system.tol2bus.snoopFanout::34                      0      0.00%    100.00% # Request fanout histogram (Count)
system.tol2bus.snoopFanout::35                      0      0.00%    100.00% # Request fanout histogram (Count)
system.tol2bus.snoopFanout::36                      0      0.00%    100.00% # Request fanout histogram (Count)
system.tol2bus.snoopFanout::37                      0      0.00%    100.00% # Request fanout histogram (Count)
system.tol2bus.snoopFanout::38                      0      0.00%    100.00% # Request fanout histogram (Count)
system.tol2bus.snoopFanout::39                      0      0.00%    100.00% # Request fanout histogram (Count)
system.tol2bus.snoopFanout::40                      0      0.00%    100.00% # Request fanout histogram (Count)
system.tol2bus.snoopFanout::41                      0      0.00%    100.00% # Request fanout histogram (Count)
system.tol2bus.snoopFanout::42                      0      0.00%    100.00% # Request fanout histogram (Count)
system.tol2bus.snoopFanout::43                      0      0.00%    100.00% # Request fanout histogram (Count)
system.tol2bus.snoopFanout::44                      0      0.00%    100.00% # Request fanout histogram (Count)
system.tol2bus.snoopFanout::45                      0      0.00%    100.00% # Request fanout histogram (Count)
system.tol2bus.snoopFanout::46                      0      0.00%    100.00% # Request fanout histogram (Count)
system.tol2bus.snoopFanout::47                      0      0.00%    100.00% # Request fanout histogram (Count)
system.tol2bus.snoopFanout::48                      0      0.00%    100.00% # Request fanout histogram (Count)
system.tol2bus.snoopFanout::49                      0      0.00%    100.00% # Request fanout histogram (Count)
system.tol2bus.snoopFanout::50                      0      0.00%    100.00% # Request fanout histogram (Count)
system.tol2bus.snoopFanout::51                      0      0.00%    100.00% # Request fanout histogram (Count)
system.tol2bus.snoopFanout::52                      0      0.00%    100.00% # Request fanout histogram (Count)
system.tol2bus.snoopFanout::53                      0      0.00%    100.00% # Request fanout histogram (Count)
system.tol2bus.snoopFanout::54                      0      0.00%    100.00% # Request fanout histogram (Count)
system.tol2bus.snoopFanout::55                      0      0.00%    100.00% # Request fanout histogram (Count)
system.tol2bus.snoopFanout::56                      0      0.00%    100.00% # Request fanout histogram (Count)
system.tol2bus.snoopFanout::57                      0      0.00%    100.00% # Request fanout histogram (Count)
system.tol2bus.snoopFanout::58                      0      0.00%    100.00% # Request fanout histogram (Count)
system.tol2bus.snoopFanout::59                      0      0.00%    100.00% # Request fanout histogram (Count)
system.tol2bus.snoopFanout::60                      0      0.00%    100.00% # Request fanout histogram (Count)
system.tol2bus.snoopFanout::61                      0      0.00%    100.00% # Request fanout histogram (Count)
system.tol2bus.snoopFanout::62                      0      0.00%    100.00% # Request fanout histogram (Count)
system.tol2bus.snoopFanout::63                      0      0.00%    100.00% # Request fanout histogram (Count)
system.tol2bus.snoopFanout::64                      0      0.00%    100.00% # Request fanout histogram (Count)
system.tol2bus.snoopFanout::overflows               0      0.00%    100.00% # Request fanout histogram (Count)
system.tol2bus.snoopFanout::min_value               0                       # Request fanout histogram (Count)
system.tol2bus.snoopFanout::max_value              17                       # Request fanout histogram (Count)
system.tol2bus.snoopFanout::total            23653564                       # Request fanout histogram (Count)
system.tol2bus.power_state.pwrStateResidencyTicks::UNDEFINED  72910510250                       # Cumulative time (in ticks) in various power states (Tick)
system.tol2bus.reqLayer0.occupancy        10365806402                       # Layer occupancy (ticks) (Tick)
system.tol2bus.reqLayer0.utilization              0.1                       # Layer utilization (Ratio)
system.tol2bus.respLayer0.occupancy           2287497                       # Layer occupancy (ticks) (Tick)
system.tol2bus.respLayer0.utilization             0.0                       # Layer utilization (Ratio)
system.tol2bus.respLayer1.occupancy         966042857                       # Layer occupancy (ticks) (Tick)
system.tol2bus.respLayer1.utilization             0.0                       # Layer utilization (Ratio)
system.tol2bus.respLayer12.occupancy            54436                       # Layer occupancy (ticks) (Tick)
system.tol2bus.respLayer12.utilization            0.0                       # Layer utilization (Ratio)
system.tol2bus.respLayer13.occupancy        398694902                       # Layer occupancy (ticks) (Tick)
system.tol2bus.respLayer13.utilization            0.0                       # Layer utilization (Ratio)
system.tol2bus.respLayer16.occupancy            59685                       # Layer occupancy (ticks) (Tick)
system.tol2bus.respLayer16.utilization            0.0                       # Layer utilization (Ratio)
system.tol2bus.respLayer17.occupancy        398698599                       # Layer occupancy (ticks) (Tick)
system.tol2bus.respLayer17.utilization            0.0                       # Layer utilization (Ratio)
system.tol2bus.respLayer20.occupancy            58448                       # Layer occupancy (ticks) (Tick)
system.tol2bus.respLayer20.utilization            0.0                       # Layer utilization (Ratio)
system.tol2bus.respLayer21.occupancy        398694682                       # Layer occupancy (ticks) (Tick)
system.tol2bus.respLayer21.utilization            0.0                       # Layer utilization (Ratio)
system.tol2bus.respLayer24.occupancy            59429                       # Layer occupancy (ticks) (Tick)
system.tol2bus.respLayer24.utilization            0.0                       # Layer utilization (Ratio)
system.tol2bus.respLayer25.occupancy        398694681                       # Layer occupancy (ticks) (Tick)
system.tol2bus.respLayer25.utilization            0.0                       # Layer utilization (Ratio)
system.tol2bus.respLayer28.occupancy            58952                       # Layer occupancy (ticks) (Tick)
system.tol2bus.respLayer28.utilization            0.0                       # Layer utilization (Ratio)
system.tol2bus.respLayer29.occupancy        398695632                       # Layer occupancy (ticks) (Tick)
system.tol2bus.respLayer29.utilization            0.0                       # Layer utilization (Ratio)
system.tol2bus.respLayer32.occupancy            57943                       # Layer occupancy (ticks) (Tick)
system.tol2bus.respLayer32.utilization            0.0                       # Layer utilization (Ratio)
system.tol2bus.respLayer33.occupancy        398694182                       # Layer occupancy (ticks) (Tick)
system.tol2bus.respLayer33.utilization            0.0                       # Layer utilization (Ratio)
system.tol2bus.respLayer36.occupancy            60180                       # Layer occupancy (ticks) (Tick)
system.tol2bus.respLayer36.utilization            0.0                       # Layer utilization (Ratio)
system.tol2bus.respLayer37.occupancy        398697894                       # Layer occupancy (ticks) (Tick)
system.tol2bus.respLayer37.utilization            0.0                       # Layer utilization (Ratio)
system.tol2bus.respLayer4.occupancy             93976                       # Layer occupancy (ticks) (Tick)
system.tol2bus.respLayer4.utilization             0.0                       # Layer utilization (Ratio)
system.tol2bus.respLayer40.occupancy            58436                       # Layer occupancy (ticks) (Tick)
system.tol2bus.respLayer40.utilization            0.0                       # Layer utilization (Ratio)
system.tol2bus.respLayer41.occupancy        398696772                       # Layer occupancy (ticks) (Tick)
system.tol2bus.respLayer41.utilization            0.0                       # Layer utilization (Ratio)
system.tol2bus.respLayer44.occupancy            61174                       # Layer occupancy (ticks) (Tick)
system.tol2bus.respLayer44.utilization            0.0                       # Layer utilization (Ratio)
system.tol2bus.respLayer45.occupancy        398698200                       # Layer occupancy (ticks) (Tick)
system.tol2bus.respLayer45.utilization            0.0                       # Layer utilization (Ratio)
system.tol2bus.respLayer48.occupancy            58919                       # Layer occupancy (ticks) (Tick)
system.tol2bus.respLayer48.utilization            0.0                       # Layer utilization (Ratio)
system.tol2bus.respLayer49.occupancy        398700144                       # Layer occupancy (ticks) (Tick)
system.tol2bus.respLayer49.utilization            0.0                       # Layer utilization (Ratio)
system.tol2bus.respLayer5.occupancy         398764434                       # Layer occupancy (ticks) (Tick)
system.tol2bus.respLayer5.utilization             0.0                       # Layer utilization (Ratio)
system.tol2bus.respLayer52.occupancy            55930                       # Layer occupancy (ticks) (Tick)
system.tol2bus.respLayer52.utilization            0.0                       # Layer utilization (Ratio)
system.tol2bus.respLayer53.occupancy        398696620                       # Layer occupancy (ticks) (Tick)
system.tol2bus.respLayer53.utilization            0.0                       # Layer utilization (Ratio)
system.tol2bus.respLayer56.occupancy            55914                       # Layer occupancy (ticks) (Tick)
system.tol2bus.respLayer56.utilization            0.0                       # Layer utilization (Ratio)
system.tol2bus.respLayer57.occupancy        398695869                       # Layer occupancy (ticks) (Tick)
system.tol2bus.respLayer57.utilization            0.0                       # Layer utilization (Ratio)
system.tol2bus.respLayer60.occupancy            60679                       # Layer occupancy (ticks) (Tick)
system.tol2bus.respLayer60.utilization            0.0                       # Layer utilization (Ratio)
system.tol2bus.respLayer61.occupancy        398697434                       # Layer occupancy (ticks) (Tick)
system.tol2bus.respLayer61.utilization            0.0                       # Layer utilization (Ratio)
system.tol2bus.respLayer8.occupancy             58932                       # Layer occupancy (ticks) (Tick)
system.tol2bus.respLayer8.utilization             0.0                       # Layer utilization (Ratio)
system.tol2bus.respLayer9.occupancy         398700160                       # Layer occupancy (ticks) (Tick)
system.tol2bus.respLayer9.utilization             0.0                       # Layer utilization (Ratio)
system.tol2bus.snoop_filter.totRequests      26002955                       # Total number of requests made to the snoop filter. (Count)
system.tol2bus.snoop_filter.hitSingleRequests     12737266                       # Number of requests hitting in the snoop filter with a single holder of the requested data. (Count)
system.tol2bus.snoop_filter.hitMultiRequests        22767                       # Number of requests hitting in the snoop filter with multiple (>1) holders of the requested data. (Count)
system.tol2bus.snoop_filter.totSnoops         2177676                       # Total number of snoops made to the snoop filter. (Count)
system.tol2bus.snoop_filter.hitSingleSnoops      2177078                       # Number of snoops hitting in the snoop filter with a single holder of the requested data. (Count)
system.tol2bus.snoop_filter.hitMultiSnoops          598                       # Number of snoops hitting in the snoop filter with multiple (>1) holders of the requested data. (Count)
system.voltage_domain.voltage                       1                       # Voltage in Volts (Volt)
system.workload.inst.arm                            0                       # number of arm instructions executed (Count)
system.workload.inst.quiesce                        0                       # number of quiesce instructions executed (Count)

---------- End Simulation Statistics   ----------
