
---------- Begin Simulation Statistics ----------
simSeconds                                   0.243296                       # Number of seconds simulated (Second)
simTicks                                 243295716250                       # Number of ticks simulated (Tick)
finalTick                                243295716250                       # Number of ticks from beginning of simulation (restored from checkpoints and never reset) (Tick)
simFreq                                  1000000000000                       # The number of ticks per simulated second ((Tick/Second))
hostSeconds                                   1788.02                       # Real time elapsed on the host (Second)
hostTickRate                                136069738                       # The number of ticks simulated per host second (ticks/s) ((Tick/Second))
hostMemory                                    7684864                       # Number of bytes of host memory used (Byte)
simInsts                                     90027709                       # Number of instructions simulated (Count)
simOps                                      167526871                       # Number of ops (including micro ops) simulated (Count)
hostInstRate                                    50350                       # Simulator instruction rate (inst/s) ((Count/Second))
hostOpRate                                      93694                       # Simulator op (including micro ops) rate (op/s) ((Count/Second))
system.clk_domain.clock                          1000                       # Clock period in ticks (Tick)
system.cpu.numCycles                        973182866                       # Number of cpu cycles simulated (Cycle)
system.cpu.numWorkItemsStarted                      0                       # Number of work items this cpu started (Count)
system.cpu.numWorkItemsCompleted                    0                       # Number of work items this cpu completed (Count)
system.cpu.instsAdded                       358997973                       # Number of instructions added to the IQ (excludes non-spec) (Count)
system.cpu.nonSpecInstsAdded                       72                       # Number of non-speculative instructions added to the IQ (Count)
system.cpu.instsIssued                      358920450                       # Number of instructions issued (Count)
system.cpu.squashedInstsIssued                   3072                       # Number of squashed instructions issued (Count)
system.cpu.squashedInstsExamined            191471168                       # Number of squashed instructions iterated over during squash; mainly for profiling (Count)
system.cpu.squashedOperandsExamined            474686                       # Number of squashed operands that are examined and possibly removed from graph (Count)
system.cpu.squashedNonSpecRemoved                  50                       # Number of squashed non-spec instructions that were removed (Count)
system.cpu.numIssuedDist::samples           972911700                       # Number of insts issued each cycle (Count)
system.cpu.numIssuedDist::mean               0.368914                       # Number of insts issued each cycle (Count)
system.cpu.numIssuedDist::stdev              1.324366                       # Number of insts issued each cycle (Count)
system.cpu.numIssuedDist::underflows                0      0.00%      0.00% # Number of insts issued each cycle (Count)
system.cpu.numIssuedDist::0                 873440545     89.78%     89.78% # Number of insts issued each cycle (Count)
system.cpu.numIssuedDist::1                  26697781      2.74%     92.52% # Number of insts issued each cycle (Count)
system.cpu.numIssuedDist::2                  14261005      1.47%     93.99% # Number of insts issued each cycle (Count)
system.cpu.numIssuedDist::3                  12073681      1.24%     95.23% # Number of insts issued each cycle (Count)
system.cpu.numIssuedDist::4                  11633447      1.20%     96.42% # Number of insts issued each cycle (Count)
system.cpu.numIssuedDist::5                  13533405      1.39%     97.81% # Number of insts issued each cycle (Count)
system.cpu.numIssuedDist::6                   7005078      0.72%     98.53% # Number of insts issued each cycle (Count)
system.cpu.numIssuedDist::7                   2885729      0.30%     98.83% # Number of insts issued each cycle (Count)
system.cpu.numIssuedDist::8                  11381029      1.17%    100.00% # Number of insts issued each cycle (Count)
system.cpu.numIssuedDist::overflows                 0      0.00%    100.00% # Number of insts issued each cycle (Count)
system.cpu.numIssuedDist::min_value                 0                       # Number of insts issued each cycle (Count)
system.cpu.numIssuedDist::max_value                 8                       # Number of insts issued each cycle (Count)
system.cpu.numIssuedDist::total             972911700                       # Number of insts issued each cycle (Count)
system.cpu.statFuBusy::No_OpClass                   0      0.00%      0.00% # attempts to use FU when none available (Count)
system.cpu.statFuBusy::IntAlu                   12242      0.05%      0.05% # attempts to use FU when none available (Count)
system.cpu.statFuBusy::IntMult                      0      0.00%      0.05% # attempts to use FU when none available (Count)
system.cpu.statFuBusy::IntDiv                       0      0.00%      0.05% # attempts to use FU when none available (Count)
system.cpu.statFuBusy::FloatAdd                     0      0.00%      0.05% # attempts to use FU when none available (Count)
system.cpu.statFuBusy::FloatCmp                     0      0.00%      0.05% # attempts to use FU when none available (Count)
system.cpu.statFuBusy::FloatCvt                     0      0.00%      0.05% # attempts to use FU when none available (Count)
system.cpu.statFuBusy::FloatMult                    0      0.00%      0.05% # attempts to use FU when none available (Count)
system.cpu.statFuBusy::FloatMultAcc                 0      0.00%      0.05% # attempts to use FU when none available (Count)
system.cpu.statFuBusy::FloatDiv                     0      0.00%      0.05% # attempts to use FU when none available (Count)
system.cpu.statFuBusy::FloatMisc                    0      0.00%      0.05% # attempts to use FU when none available (Count)
system.cpu.statFuBusy::FloatSqrt                    0      0.00%      0.05% # attempts to use FU when none available (Count)
system.cpu.statFuBusy::SimdAdd                      0      0.00%      0.05% # attempts to use FU when none available (Count)
system.cpu.statFuBusy::SimdAddAcc                   0      0.00%      0.05% # attempts to use FU when none available (Count)
system.cpu.statFuBusy::SimdAlu                     74      0.00%      0.05% # attempts to use FU when none available (Count)
system.cpu.statFuBusy::SimdCmp                      0      0.00%      0.05% # attempts to use FU when none available (Count)
system.cpu.statFuBusy::SimdCvt                     30      0.00%      0.05% # attempts to use FU when none available (Count)
system.cpu.statFuBusy::SimdMisc                    17      0.00%      0.05% # attempts to use FU when none available (Count)
system.cpu.statFuBusy::SimdMult                     0      0.00%      0.05% # attempts to use FU when none available (Count)
system.cpu.statFuBusy::SimdMultAcc                  0      0.00%      0.05% # attempts to use FU when none available (Count)
system.cpu.statFuBusy::SimdShift                    1      0.00%      0.05% # attempts to use FU when none available (Count)
system.cpu.statFuBusy::SimdShiftAcc                 0      0.00%      0.05% # attempts to use FU when none available (Count)
system.cpu.statFuBusy::SimdDiv                      0      0.00%      0.05% # attempts to use FU when none available (Count)
system.cpu.statFuBusy::SimdSqrt                     0      0.00%      0.05% # attempts to use FU when none available (Count)
system.cpu.statFuBusy::SimdFloatAdd            935798      4.08%      4.13% # attempts to use FU when none available (Count)
system.cpu.statFuBusy::SimdFloatAlu                 0      0.00%      4.13% # attempts to use FU when none available (Count)
system.cpu.statFuBusy::SimdFloatCmp                 0      0.00%      4.13% # attempts to use FU when none available (Count)
system.cpu.statFuBusy::SimdFloatCvt                 0      0.00%      4.13% # attempts to use FU when none available (Count)
system.cpu.statFuBusy::SimdFloatDiv                 0      0.00%      4.13% # attempts to use FU when none available (Count)
system.cpu.statFuBusy::SimdFloatMisc                0      0.00%      4.13% # attempts to use FU when none available (Count)
system.cpu.statFuBusy::SimdFloatMult           479426      2.09%      6.22% # attempts to use FU when none available (Count)
system.cpu.statFuBusy::SimdFloatMultAcc             0      0.00%      6.22% # attempts to use FU when none available (Count)
system.cpu.statFuBusy::SimdFloatSqrt                0      0.00%      6.22% # attempts to use FU when none available (Count)
system.cpu.statFuBusy::SimdReduceAdd                0      0.00%      6.22% # attempts to use FU when none available (Count)
system.cpu.statFuBusy::SimdReduceAlu                0      0.00%      6.22% # attempts to use FU when none available (Count)
system.cpu.statFuBusy::SimdReduceCmp                0      0.00%      6.22% # attempts to use FU when none available (Count)
system.cpu.statFuBusy::SimdFloatReduceAdd            0      0.00%      6.22% # attempts to use FU when none available (Count)
system.cpu.statFuBusy::SimdFloatReduceCmp            0      0.00%      6.22% # attempts to use FU when none available (Count)
system.cpu.statFuBusy::SimdAes                      0      0.00%      6.22% # attempts to use FU when none available (Count)
system.cpu.statFuBusy::SimdAesMix                   0      0.00%      6.22% # attempts to use FU when none available (Count)
system.cpu.statFuBusy::SimdSha1Hash                 0      0.00%      6.22% # attempts to use FU when none available (Count)
system.cpu.statFuBusy::SimdSha1Hash2                0      0.00%      6.22% # attempts to use FU when none available (Count)
system.cpu.statFuBusy::SimdSha256Hash               0      0.00%      6.22% # attempts to use FU when none available (Count)
system.cpu.statFuBusy::SimdSha256Hash2              0      0.00%      6.22% # attempts to use FU when none available (Count)
system.cpu.statFuBusy::SimdShaSigma2                0      0.00%      6.22% # attempts to use FU when none available (Count)
system.cpu.statFuBusy::SimdShaSigma3                0      0.00%      6.22% # attempts to use FU when none available (Count)
system.cpu.statFuBusy::SimdPredAlu                  0      0.00%      6.22% # attempts to use FU when none available (Count)
system.cpu.statFuBusy::MemRead                2000770      8.72%     14.95% # attempts to use FU when none available (Count)
system.cpu.statFuBusy::MemWrite               6000226     26.16%     41.11% # attempts to use FU when none available (Count)
system.cpu.statFuBusy::FloatMemRead          11503026     50.16%     91.27% # attempts to use FU when none available (Count)
system.cpu.statFuBusy::FloatMemWrite          2002062      8.73%    100.00% # attempts to use FU when none available (Count)
system.cpu.statFuBusy::IprAccess                    0      0.00%    100.00% # attempts to use FU when none available (Count)
system.cpu.statFuBusy::InstPrefetch                 0      0.00%    100.00% # attempts to use FU when none available (Count)
system.cpu.statIssuedInstType_0::No_OpClass     22019777      6.14%      6.14% # Number of instructions issued per FU type, per thread (Count)
system.cpu.statIssuedInstType_0::IntAlu     126652124     35.29%     41.42% # Number of instructions issued per FU type, per thread (Count)
system.cpu.statIssuedInstType_0::IntMult          221      0.00%     41.42% # Number of instructions issued per FU type, per thread (Count)
system.cpu.statIssuedInstType_0::IntDiv          1752      0.00%     41.42% # Number of instructions issued per FU type, per thread (Count)
system.cpu.statIssuedInstType_0::FloatAdd     12005415      3.34%     44.77% # Number of instructions issued per FU type, per thread (Count)
system.cpu.statIssuedInstType_0::FloatCmp            0      0.00%     44.77% # Number of instructions issued per FU type, per thread (Count)
system.cpu.statIssuedInstType_0::FloatCvt           32      0.00%     44.77% # Number of instructions issued per FU type, per thread (Count)
system.cpu.statIssuedInstType_0::FloatMult            0      0.00%     44.77% # Number of instructions issued per FU type, per thread (Count)
system.cpu.statIssuedInstType_0::FloatMultAcc            0      0.00%     44.77% # Number of instructions issued per FU type, per thread (Count)
system.cpu.statIssuedInstType_0::FloatDiv            0      0.00%     44.77% # Number of instructions issued per FU type, per thread (Count)
system.cpu.statIssuedInstType_0::FloatMisc            0      0.00%     44.77% # Number of instructions issued per FU type, per thread (Count)
system.cpu.statIssuedInstType_0::FloatSqrt            0      0.00%     44.77% # Number of instructions issued per FU type, per thread (Count)
system.cpu.statIssuedInstType_0::SimdAdd          410      0.00%     44.77% # Number of instructions issued per FU type, per thread (Count)
system.cpu.statIssuedInstType_0::SimdAddAcc            0      0.00%     44.77% # Number of instructions issued per FU type, per thread (Count)
system.cpu.statIssuedInstType_0::SimdAlu        23628      0.01%     44.77% # Number of instructions issued per FU type, per thread (Count)
system.cpu.statIssuedInstType_0::SimdCmp            8      0.00%     44.77% # Number of instructions issued per FU type, per thread (Count)
system.cpu.statIssuedInstType_0::SimdCvt         1530      0.00%     44.77% # Number of instructions issued per FU type, per thread (Count)
system.cpu.statIssuedInstType_0::SimdMisc         1718      0.00%     44.77% # Number of instructions issued per FU type, per thread (Count)
system.cpu.statIssuedInstType_0::SimdMult            0      0.00%     44.77% # Number of instructions issued per FU type, per thread (Count)
system.cpu.statIssuedInstType_0::SimdMultAcc            0      0.00%     44.77% # Number of instructions issued per FU type, per thread (Count)
system.cpu.statIssuedInstType_0::SimdShift          303      0.00%     44.78% # Number of instructions issued per FU type, per thread (Count)
system.cpu.statIssuedInstType_0::SimdShiftAcc            0      0.00%     44.78% # Number of instructions issued per FU type, per thread (Count)
system.cpu.statIssuedInstType_0::SimdDiv            0      0.00%     44.78% # Number of instructions issued per FU type, per thread (Count)
system.cpu.statIssuedInstType_0::SimdSqrt            0      0.00%     44.78% # Number of instructions issued per FU type, per thread (Count)
system.cpu.statIssuedInstType_0::SimdFloatAdd     15009050      4.18%     48.96% # Number of instructions issued per FU type, per thread (Count)
system.cpu.statIssuedInstType_0::SimdFloatAlu            0      0.00%     48.96% # Number of instructions issued per FU type, per thread (Count)
system.cpu.statIssuedInstType_0::SimdFloatCmp           26      0.00%     48.96% # Number of instructions issued per FU type, per thread (Count)
system.cpu.statIssuedInstType_0::SimdFloatCvt      3013423      0.84%     49.80% # Number of instructions issued per FU type, per thread (Count)
system.cpu.statIssuedInstType_0::SimdFloatDiv           17      0.00%     49.80% # Number of instructions issued per FU type, per thread (Count)
system.cpu.statIssuedInstType_0::SimdFloatMisc            0      0.00%     49.80% # Number of instructions issued per FU type, per thread (Count)
system.cpu.statIssuedInstType_0::SimdFloatMult      8004617      2.23%     52.03% # Number of instructions issued per FU type, per thread (Count)
system.cpu.statIssuedInstType_0::SimdFloatMultAcc            0      0.00%     52.03% # Number of instructions issued per FU type, per thread (Count)
system.cpu.statIssuedInstType_0::SimdFloatSqrt            0      0.00%     52.03% # Number of instructions issued per FU type, per thread (Count)
system.cpu.statIssuedInstType_0::SimdReduceAdd            0      0.00%     52.03% # Number of instructions issued per FU type, per thread (Count)
system.cpu.statIssuedInstType_0::SimdReduceAlu            0      0.00%     52.03% # Number of instructions issued per FU type, per thread (Count)
system.cpu.statIssuedInstType_0::SimdReduceCmp            0      0.00%     52.03% # Number of instructions issued per FU type, per thread (Count)
system.cpu.statIssuedInstType_0::SimdFloatReduceAdd            0      0.00%     52.03% # Number of instructions issued per FU type, per thread (Count)
system.cpu.statIssuedInstType_0::SimdFloatReduceCmp            0      0.00%     52.03% # Number of instructions issued per FU type, per thread (Count)
system.cpu.statIssuedInstType_0::SimdAes            0      0.00%     52.03% # Number of instructions issued per FU type, per thread (Count)
system.cpu.statIssuedInstType_0::SimdAesMix            0      0.00%     52.03% # Number of instructions issued per FU type, per thread (Count)
system.cpu.statIssuedInstType_0::SimdSha1Hash            0      0.00%     52.03% # Number of instructions issued per FU type, per thread (Count)
system.cpu.statIssuedInstType_0::SimdSha1Hash2            0      0.00%     52.03% # Number of instructions issued per FU type, per thread (Count)
system.cpu.statIssuedInstType_0::SimdSha256Hash            0      0.00%     52.03% # Number of instructions issued per FU type, per thread (Count)
system.cpu.statIssuedInstType_0::SimdSha256Hash2            0      0.00%     52.03% # Number of instructions issued per FU type, per thread (Count)
system.cpu.statIssuedInstType_0::SimdShaSigma2            0      0.00%     52.03% # Number of instructions issued per FU type, per thread (Count)
system.cpu.statIssuedInstType_0::SimdShaSigma3            0      0.00%     52.03% # Number of instructions issued per FU type, per thread (Count)
system.cpu.statIssuedInstType_0::SimdPredAlu            0      0.00%     52.03% # Number of instructions issued per FU type, per thread (Count)
system.cpu.statIssuedInstType_0::MemRead     11110648      3.10%     55.12% # Number of instructions issued per FU type, per thread (Count)
system.cpu.statIssuedInstType_0::MemWrite     25045862      6.98%     62.10% # Number of instructions issued per FU type, per thread (Count)
system.cpu.statIssuedInstType_0::FloatMemRead     75028334     20.90%     83.00% # Number of instructions issued per FU type, per thread (Count)
system.cpu.statIssuedInstType_0::FloatMemWrite     61001555     17.00%    100.00% # Number of instructions issued per FU type, per thread (Count)
system.cpu.statIssuedInstType_0::IprAccess            0      0.00%    100.00% # Number of instructions issued per FU type, per thread (Count)
system.cpu.statIssuedInstType_0::InstPrefetch            0      0.00%    100.00% # Number of instructions issued per FU type, per thread (Count)
system.cpu.statIssuedInstType_0::total      358920450                       # Number of instructions issued per FU type, per thread (Count)
system.cpu.issueRate                         0.368811                       # Inst issue rate ((Count/Cycle))
system.cpu.fuBusy                            22933672                       # FU busy when requested (Count)
system.cpu.fuBusyRate                        0.063896                       # FU busy rate (busy events/executed inst) ((Count/Count))
system.cpu.intInstQueueReads               1334569394                       # Number of integer instruction queue reads (Count)
system.cpu.intInstQueueWrites               286310761                       # Number of integer instruction queue writes (Count)
system.cpu.intInstQueueWakeupAccesses       154794867                       # Number of integer instruction queue wakeup accesses (Count)
system.cpu.fpInstQueueReads                 379119950                       # Number of floating instruction queue reads (Count)
system.cpu.fpInstQueueWrites                264158607                       # Number of floating instruction queue writes (Count)
system.cpu.fpInstQueueWakeupAccesses        182091242                       # Number of floating instruction queue wakeup accesses (Count)
system.cpu.vecInstQueueReads                        0                       # Number of vector instruction queue reads (Count)
system.cpu.vecInstQueueWrites                       0                       # Number of vector instruction queue writes (Count)
system.cpu.vecInstQueueWakeupAccesses               0                       # Number of vector instruction queue wakeup accesses (Count)
system.cpu.intAluAccesses                   162814191                       # Number of integer alu accesses (Count)
system.cpu.fpAluAccesses                    197020154                       # Number of floating point alu accesses (Count)
system.cpu.vecAluAccesses                           0                       # Number of vector alu accesses (Count)
system.cpu.numInsts                         358900066                       # Number of executed instructions (Count)
system.cpu.numLoadInsts                      86133167                       # Number of load instructions executed (Count)
system.cpu.numSquashedInsts                     20384                       # Number of squashed instructions skipped in execute (Count)
system.cpu.numSwp                                   0                       # Number of swp insts executed (Count)
system.cpu.numNop                                   0                       # Number of nop insts executed (Count)
system.cpu.numRefs                          172179941                       # Number of memory reference insts executed (Count)
system.cpu.numBranches                       14015835                       # Number of branches executed (Count)
system.cpu.numStoreInsts                     86046774                       # Number of stores executed (Count)
system.cpu.numRate                           0.368790                       # Inst execution rate ((Count/Cycle))
system.cpu.timesIdled                            1248                       # Number of times that the entire CPU went into an idle state and unscheduled itself (Count)
system.cpu.idleCycles                          271166                       # Total number of cycles that the CPU has spent unscheduled due to idling (Cycle)
system.cpu.committedInsts                    90027709                       # Number of Instructions Simulated (Count)
system.cpu.committedOps                     167526871                       # Number of Ops (including micro ops) Simulated (Count)
system.cpu.cpi                              10.809815                       # CPI: Cycles Per Instruction ((Cycle/Count))
system.cpu.totalCpi                         10.809815                       # CPI: Total CPI of All Threads ((Cycle/Count))
system.cpu.ipc                               0.092509                       # IPC: Instructions Per Cycle ((Count/Cycle))
system.cpu.totalIpc                          0.092509                       # IPC: Total IPC of All Threads ((Count/Cycle))
system.cpu.intRegfileReads                  284452361                       # Number of integer regfile reads (Count)
system.cpu.intRegfileWrites                  93757810                       # Number of integer regfile writes (Count)
system.cpu.fpRegfileReads                   152136558                       # Number of floating regfile reads (Count)
system.cpu.fpRegfileWrites                  118084718                       # Number of floating regfile writes (Count)
system.cpu.ccRegfileReads                    75951248                       # number of cc regfile reads (Count)
system.cpu.ccRegfileWrites                   79886459                       # number of cc regfile writes (Count)
system.cpu.miscRegfileReads                 204223710                       # number of misc regfile reads (Count)
system.cpu.miscRegfileWrites                       18                       # number of misc regfile writes (Count)
system.cpu.MemDepUnit__0.insertedLoads       86143206                       # Number of loads inserted to the mem dependence unit. (Count)
system.cpu.MemDepUnit__0.insertedStores      86050593                       # Number of stores inserted to the mem dependence unit. (Count)
system.cpu.MemDepUnit__0.conflictingLoads      1000930                       # Number of conflicting loads. (Count)
system.cpu.MemDepUnit__0.conflictingStores      1001003                       # Number of conflicting stores. (Count)
system.cpu.MemDepUnit__1.insertedLoads              0                       # Number of loads inserted to the mem dependence unit. (Count)
system.cpu.MemDepUnit__1.insertedStores             0                       # Number of stores inserted to the mem dependence unit. (Count)
system.cpu.MemDepUnit__1.conflictingLoads            0                       # Number of conflicting loads. (Count)
system.cpu.MemDepUnit__1.conflictingStores            0                       # Number of conflicting stores. (Count)
system.cpu.MemDepUnit__2.insertedLoads              0                       # Number of loads inserted to the mem dependence unit. (Count)
system.cpu.MemDepUnit__2.insertedStores             0                       # Number of stores inserted to the mem dependence unit. (Count)
system.cpu.MemDepUnit__2.conflictingLoads            0                       # Number of conflicting loads. (Count)
system.cpu.MemDepUnit__2.conflictingStores            0                       # Number of conflicting stores. (Count)
system.cpu.MemDepUnit__3.insertedLoads              0                       # Number of loads inserted to the mem dependence unit. (Count)
system.cpu.MemDepUnit__3.insertedStores             0                       # Number of stores inserted to the mem dependence unit. (Count)
system.cpu.MemDepUnit__3.conflictingLoads            0                       # Number of conflicting loads. (Count)
system.cpu.MemDepUnit__3.conflictingStores            0                       # Number of conflicting stores. (Count)
system.cpu.branchPred.lookups                16054651                       # Number of BP lookups (Count)
system.cpu.branchPred.condPredicted          16003492                       # Number of conditional branches predicted (Count)
system.cpu.branchPred.condIncorrect              6171                       # Number of conditional branches incorrect (Count)
system.cpu.branchPred.BTBLookups             12961204                       # Number of BTB lookups (Count)
system.cpu.branchPred.BTBHits                12958734                       # Number of BTB hits (Count)
system.cpu.branchPred.BTBHitRatio            0.999809                       # BTB Hit Ratio (Ratio)
system.cpu.branchPred.RASUsed                   16035                       # Number of times the RAS was used to get a target. (Count)
system.cpu.branchPred.RASIncorrect                 13                       # Number of incorrect RAS predictions. (Count)
system.cpu.branchPred.indirectLookups            7526                       # Number of indirect predictor lookups. (Count)
system.cpu.branchPred.indirectHits               5197                       # Number of indirect target hits. (Count)
system.cpu.branchPred.indirectMisses             2329                       # Number of indirect misses. (Count)
system.cpu.branchPred.indirectMispredicted          418                       # Number of mispredicted indirect branches. (Count)
system.cpu.commit.commitSquashedInsts       159871184                       # The number of squashed insts skipped by commit (Count)
system.cpu.commit.commitNonSpecStalls              22                       # The number of times commit has been forced to stall to communicate backwards (Count)
system.cpu.commit.branchMispredicts              6037                       # The number of times a branch was mispredicted (Count)
system.cpu.commit.numCommittedDist::samples    951858082                       # Number of insts commited each cycle (Count)
system.cpu.commit.numCommittedDist::mean     0.176000                       # Number of insts commited each cycle (Count)
system.cpu.commit.numCommittedDist::stdev     1.007665                       # Number of insts commited each cycle (Count)
system.cpu.commit.numCommittedDist::underflows            0      0.00%      0.00% # Number of insts commited each cycle (Count)
system.cpu.commit.numCommittedDist::0       909136844     95.51%     95.51% # Number of insts commited each cycle (Count)
system.cpu.commit.numCommittedDist::1        12398756      1.30%     96.81% # Number of insts commited each cycle (Count)
system.cpu.commit.numCommittedDist::2         6994317      0.73%     97.55% # Number of insts commited each cycle (Count)
system.cpu.commit.numCommittedDist::3         3248652      0.34%     97.89% # Number of insts commited each cycle (Count)
system.cpu.commit.numCommittedDist::4         5714725      0.60%     98.49% # Number of insts commited each cycle (Count)
system.cpu.commit.numCommittedDist::5         1723811      0.18%     98.67% # Number of insts commited each cycle (Count)
system.cpu.commit.numCommittedDist::6          503628      0.05%     98.72% # Number of insts commited each cycle (Count)
system.cpu.commit.numCommittedDist::7          204990      0.02%     98.75% # Number of insts commited each cycle (Count)
system.cpu.commit.numCommittedDist::8        11932359      1.25%    100.00% # Number of insts commited each cycle (Count)
system.cpu.commit.numCommittedDist::overflows            0      0.00%    100.00% # Number of insts commited each cycle (Count)
system.cpu.commit.numCommittedDist::min_value            0                       # Number of insts commited each cycle (Count)
system.cpu.commit.numCommittedDist::max_value            8                       # Number of insts commited each cycle (Count)
system.cpu.commit.numCommittedDist::total    951858082                       # Number of insts commited each cycle (Count)
system.cpu.commit.instsCommitted             90027709                       # Number of instructions committed (Count)
system.cpu.commit.opsCommitted              167526871                       # Number of ops (including micro ops) committed (Count)
system.cpu.commit.memRefs                    58113090                       # Number of memory references committed (Count)
system.cpu.commit.loads                      36081095                       # Number of loads committed (Count)
system.cpu.commit.amos                              0                       # Number of atomic instructions committed (Count)
system.cpu.commit.membars                           0                       # Number of memory barriers committed (Count)
system.cpu.commit.branches                    8975900                       # Number of branches committed (Count)
system.cpu.commit.vectorInstructions                0                       # Number of committed Vector instructions. (Count)
system.cpu.commit.floating                  100049227                       # Number of committed floating point instructions. (Count)
system.cpu.commit.integer                   121482888                       # Number of committed integer instructions. (Count)
system.cpu.commit.functionCalls                  6296                       # Number of function calls committed. (Count)
system.cpu.commit.committedInstType_0::No_OpClass         9339      0.01%      0.01% # Class of committed instruction (Count)
system.cpu.commit.committedInstType_0::IntAlu     71372839     42.60%     42.61% # Class of committed instruction (Count)
system.cpu.commit.committedInstType_0::IntMult          205      0.00%     42.61% # Class of committed instruction (Count)
system.cpu.commit.committedInstType_0::IntDiv         1605      0.00%     42.61% # Class of committed instruction (Count)
system.cpu.commit.committedInstType_0::FloatAdd     12002737      7.16%     49.78% # Class of committed instruction (Count)
system.cpu.commit.committedInstType_0::FloatCmp            0      0.00%     49.78% # Class of committed instruction (Count)
system.cpu.commit.committedInstType_0::FloatCvt           32      0.00%     49.78% # Class of committed instruction (Count)
system.cpu.commit.committedInstType_0::FloatMult            0      0.00%     49.78% # Class of committed instruction (Count)
system.cpu.commit.committedInstType_0::FloatMultAcc            0      0.00%     49.78% # Class of committed instruction (Count)
system.cpu.commit.committedInstType_0::FloatDiv            0      0.00%     49.78% # Class of committed instruction (Count)
system.cpu.commit.committedInstType_0::FloatMisc            0      0.00%     49.78% # Class of committed instruction (Count)
system.cpu.commit.committedInstType_0::FloatSqrt            0      0.00%     49.78% # Class of committed instruction (Count)
system.cpu.commit.committedInstType_0::SimdAdd          340      0.00%     49.78% # Class of committed instruction (Count)
system.cpu.commit.committedInstType_0::SimdAddAcc            0      0.00%     49.78% # Class of committed instruction (Count)
system.cpu.commit.committedInstType_0::SimdAlu        10259      0.01%     49.78% # Class of committed instruction (Count)
system.cpu.commit.committedInstType_0::SimdCmp            6      0.00%     49.78% # Class of committed instruction (Count)
system.cpu.commit.committedInstType_0::SimdCvt         1234      0.00%     49.78% # Class of committed instruction (Count)
system.cpu.commit.committedInstType_0::SimdMisc         1575      0.00%     49.78% # Class of committed instruction (Count)
system.cpu.commit.committedInstType_0::SimdMult            0      0.00%     49.78% # Class of committed instruction (Count)
system.cpu.commit.committedInstType_0::SimdMultAcc            0      0.00%     49.78% # Class of committed instruction (Count)
system.cpu.commit.committedInstType_0::SimdShift           99      0.00%     49.78% # Class of committed instruction (Count)
system.cpu.commit.committedInstType_0::SimdShiftAcc            0      0.00%     49.78% # Class of committed instruction (Count)
system.cpu.commit.committedInstType_0::SimdDiv            0      0.00%     49.78% # Class of committed instruction (Count)
system.cpu.commit.committedInstType_0::SimdSqrt            0      0.00%     49.78% # Class of committed instruction (Count)
system.cpu.commit.committedInstType_0::SimdFloatAdd     15004476      8.96%     58.74% # Class of committed instruction (Count)
system.cpu.commit.committedInstType_0::SimdFloatAlu            0      0.00%     58.74% # Class of committed instruction (Count)
system.cpu.commit.committedInstType_0::SimdFloatCmp           24      0.00%     58.74% # Class of committed instruction (Count)
system.cpu.commit.committedInstType_0::SimdFloatCvt      3006727      1.79%     60.53% # Class of committed instruction (Count)
system.cpu.commit.committedInstType_0::SimdFloatDiv           15      0.00%     60.53% # Class of committed instruction (Count)
system.cpu.commit.committedInstType_0::SimdFloatMisc            0      0.00%     60.53% # Class of committed instruction (Count)
system.cpu.commit.committedInstType_0::SimdFloatMult      8002269      4.78%     65.31% # Class of committed instruction (Count)
system.cpu.commit.committedInstType_0::SimdFloatMultAcc            0      0.00%     65.31% # Class of committed instruction (Count)
system.cpu.commit.committedInstType_0::SimdFloatSqrt            0      0.00%     65.31% # Class of committed instruction (Count)
system.cpu.commit.committedInstType_0::SimdReduceAdd            0      0.00%     65.31% # Class of committed instruction (Count)
system.cpu.commit.committedInstType_0::SimdReduceAlu            0      0.00%     65.31% # Class of committed instruction (Count)
system.cpu.commit.committedInstType_0::SimdReduceCmp            0      0.00%     65.31% # Class of committed instruction (Count)
system.cpu.commit.committedInstType_0::SimdFloatReduceAdd            0      0.00%     65.31% # Class of committed instruction (Count)
system.cpu.commit.committedInstType_0::SimdFloatReduceCmp            0      0.00%     65.31% # Class of committed instruction (Count)
system.cpu.commit.committedInstType_0::SimdAes            0      0.00%     65.31% # Class of committed instruction (Count)
system.cpu.commit.committedInstType_0::SimdAesMix            0      0.00%     65.31% # Class of committed instruction (Count)
system.cpu.commit.committedInstType_0::SimdSha1Hash            0      0.00%     65.31% # Class of committed instruction (Count)
system.cpu.commit.committedInstType_0::SimdSha1Hash2            0      0.00%     65.31% # Class of committed instruction (Count)
system.cpu.commit.committedInstType_0::SimdSha256Hash            0      0.00%     65.31% # Class of committed instruction (Count)
system.cpu.commit.committedInstType_0::SimdSha256Hash2            0      0.00%     65.31% # Class of committed instruction (Count)
system.cpu.commit.committedInstType_0::SimdShaSigma2            0      0.00%     65.31% # Class of committed instruction (Count)
system.cpu.commit.committedInstType_0::SimdShaSigma3            0      0.00%     65.31% # Class of committed instruction (Count)
system.cpu.commit.committedInstType_0::SimdPredAlu            0      0.00%     65.31% # Class of committed instruction (Count)
system.cpu.commit.committedInstType_0::MemRead      1068258      0.64%     65.95% # Class of committed instruction (Count)
system.cpu.commit.committedInstType_0::MemWrite      3030327      1.81%     67.76% # Class of committed instruction (Count)
system.cpu.commit.committedInstType_0::FloatMemRead     35012837     20.90%     88.66% # Class of committed instruction (Count)
system.cpu.commit.committedInstType_0::FloatMemWrite     19001668     11.34%    100.00% # Class of committed instruction (Count)
system.cpu.commit.committedInstType_0::IprAccess            0      0.00%    100.00% # Class of committed instruction (Count)
system.cpu.commit.committedInstType_0::InstPrefetch            0      0.00%    100.00% # Class of committed instruction (Count)
system.cpu.commit.committedInstType_0::total    167526871                       # Class of committed instruction (Count)
system.cpu.commit.commitEligibleSamples      11932359                       # number cycles where commit BW limit reached (Cycle)
system.cpu.dcache.demandHits::cpu.data       71539238                       # number of demand (read+write) hits (Count)
system.cpu.dcache.demandHits::total          71539238                       # number of demand (read+write) hits (Count)
system.cpu.dcache.overallHits::cpu.data      82036715                       # number of overall hits (Count)
system.cpu.dcache.overallHits::total         82036715                       # number of overall hits (Count)
system.cpu.dcache.demandMisses::cpu.data     23614790                       # number of demand (read+write) misses (Count)
system.cpu.dcache.demandMisses::total        23614790                       # number of demand (read+write) misses (Count)
system.cpu.dcache.overallMisses::cpu.data     24117173                       # number of overall misses (Count)
system.cpu.dcache.overallMisses::total       24117173                       # number of overall misses (Count)
system.cpu.dcache.demandMissLatency::cpu.data 641504623747                       # number of demand (read+write) miss ticks (Tick)
system.cpu.dcache.demandMissLatency::total 641504623747                       # number of demand (read+write) miss ticks (Tick)
system.cpu.dcache.overallMissLatency::cpu.data 641504623747                       # number of overall miss ticks (Tick)
system.cpu.dcache.overallMissLatency::total 641504623747                       # number of overall miss ticks (Tick)
system.cpu.dcache.demandAccesses::cpu.data     95154028                       # number of demand (read+write) accesses (Count)
system.cpu.dcache.demandAccesses::total      95154028                       # number of demand (read+write) accesses (Count)
system.cpu.dcache.overallAccesses::cpu.data    106153888                       # number of overall (read+write) accesses (Count)
system.cpu.dcache.overallAccesses::total    106153888                       # number of overall (read+write) accesses (Count)
system.cpu.dcache.demandMissRate::cpu.data     0.248174                       # miss rate for demand accesses (Ratio)
system.cpu.dcache.demandMissRate::total      0.248174                       # miss rate for demand accesses (Ratio)
system.cpu.dcache.overallMissRate::cpu.data     0.227191                       # miss rate for overall accesses (Ratio)
system.cpu.dcache.overallMissRate::total     0.227191                       # miss rate for overall accesses (Ratio)
system.cpu.dcache.demandAvgMissLatency::cpu.data 27165.374909                       # average overall miss latency in ticks ((Tick/Count))
system.cpu.dcache.demandAvgMissLatency::total 27165.374909                       # average overall miss latency in ticks ((Tick/Count))
system.cpu.dcache.overallAvgMissLatency::cpu.data 26599.495046                       # average overall miss latency ((Tick/Count))
system.cpu.dcache.overallAvgMissLatency::total 26599.495046                       # average overall miss latency ((Tick/Count))
system.cpu.dcache.blockedCycles::no_mshrs     19283740                       # number of cycles access was blocked (Cycle)
system.cpu.dcache.blockedCycles::no_targets            0                       # number of cycles access was blocked (Cycle)
system.cpu.dcache.blockedCauses::no_mshrs       991280                       # number of times access was blocked (Count)
system.cpu.dcache.blockedCauses::no_targets            0                       # number of times access was blocked (Count)
system.cpu.dcache.avgBlocked::no_mshrs      19.453373                       # average number of cycles each access was blocked ((Cycle/Count))
system.cpu.dcache.avgBlocked::no_targets          nan                       # average number of cycles each access was blocked ((Cycle/Count))
system.cpu.dcache.writebacks::writebacks      2500915                       # number of writebacks (Count)
system.cpu.dcache.writebacks::total           2500915                       # number of writebacks (Count)
system.cpu.dcache.demandMshrHits::cpu.data     18236370                       # number of demand (read+write) MSHR hits (Count)
system.cpu.dcache.demandMshrHits::total      18236370                       # number of demand (read+write) MSHR hits (Count)
system.cpu.dcache.overallMshrHits::cpu.data     18236370                       # number of overall MSHR hits (Count)
system.cpu.dcache.overallMshrHits::total     18236370                       # number of overall MSHR hits (Count)
system.cpu.dcache.demandMshrMisses::cpu.data      5378420                       # number of demand (read+write) MSHR misses (Count)
system.cpu.dcache.demandMshrMisses::total      5378420                       # number of demand (read+write) MSHR misses (Count)
system.cpu.dcache.overallMshrMisses::cpu.data      5878428                       # number of overall MSHR misses (Count)
system.cpu.dcache.overallMshrMisses::total      5878428                       # number of overall MSHR misses (Count)
system.cpu.dcache.demandMshrMissLatency::cpu.data 449656758998                       # number of demand (read+write) MSHR miss ticks (Tick)
system.cpu.dcache.demandMshrMissLatency::total 449656758998                       # number of demand (read+write) MSHR miss ticks (Tick)
system.cpu.dcache.overallMshrMissLatency::cpu.data 491629694748                       # number of overall MSHR miss ticks (Tick)
system.cpu.dcache.overallMshrMissLatency::total 491629694748                       # number of overall MSHR miss ticks (Tick)
system.cpu.dcache.demandMshrMissRate::cpu.data     0.056523                       # mshr miss ratio for demand accesses (Ratio)
system.cpu.dcache.demandMshrMissRate::total     0.056523                       # mshr miss ratio for demand accesses (Ratio)
system.cpu.dcache.overallMshrMissRate::cpu.data     0.055376                       # mshr miss ratio for overall accesses (Ratio)
system.cpu.dcache.overallMshrMissRate::total     0.055376                       # mshr miss ratio for overall accesses (Ratio)
system.cpu.dcache.demandAvgMshrMissLatency::cpu.data 83603.876045                       # average overall mshr miss latency ((Tick/Count))
system.cpu.dcache.demandAvgMshrMissLatency::total 83603.876045                       # average overall mshr miss latency ((Tick/Count))
system.cpu.dcache.overallAvgMshrMissLatency::cpu.data 83632.851291                       # average overall mshr miss latency ((Tick/Count))
system.cpu.dcache.overallAvgMshrMissLatency::total 83632.851291                       # average overall mshr miss latency ((Tick/Count))
system.cpu.dcache.replacements                5877400                       # number of replacements (Count)
system.cpu.dcache.ReadReq.hits::cpu.data     53882911                       # number of ReadReq hits (Count)
system.cpu.dcache.ReadReq.hits::total        53882911                       # number of ReadReq hits (Count)
system.cpu.dcache.ReadReq.misses::cpu.data     21239084                       # number of ReadReq misses (Count)
system.cpu.dcache.ReadReq.misses::total      21239084                       # number of ReadReq misses (Count)
system.cpu.dcache.ReadReq.missLatency::cpu.data 448085763000                       # number of ReadReq miss ticks (Tick)
system.cpu.dcache.ReadReq.missLatency::total 448085763000                       # number of ReadReq miss ticks (Tick)
system.cpu.dcache.ReadReq.accesses::cpu.data     75121995                       # number of ReadReq accesses(hits+misses) (Count)
system.cpu.dcache.ReadReq.accesses::total     75121995                       # number of ReadReq accesses(hits+misses) (Count)
system.cpu.dcache.ReadReq.missRate::cpu.data     0.282728                       # miss rate for ReadReq accesses (Ratio)
system.cpu.dcache.ReadReq.missRate::total     0.282728                       # miss rate for ReadReq accesses (Ratio)
system.cpu.dcache.ReadReq.avgMissLatency::cpu.data 21097.226368                       # average ReadReq miss latency ((Tick/Count))
system.cpu.dcache.ReadReq.avgMissLatency::total 21097.226368                       # average ReadReq miss latency ((Tick/Count))
system.cpu.dcache.ReadReq.mshrHits::cpu.data     18236358                       # number of ReadReq MSHR hits (Count)
system.cpu.dcache.ReadReq.mshrHits::total     18236358                       # number of ReadReq MSHR hits (Count)
system.cpu.dcache.ReadReq.mshrMisses::cpu.data      3002726                       # number of ReadReq MSHR misses (Count)
system.cpu.dcache.ReadReq.mshrMisses::total      3002726                       # number of ReadReq MSHR misses (Count)
system.cpu.dcache.ReadReq.mshrMissLatency::cpu.data 257426115750                       # number of ReadReq MSHR miss ticks (Tick)
system.cpu.dcache.ReadReq.mshrMissLatency::total 257426115750                       # number of ReadReq MSHR miss ticks (Tick)
system.cpu.dcache.ReadReq.mshrMissRate::cpu.data     0.039971                       # mshr miss rate for ReadReq accesses (Ratio)
system.cpu.dcache.ReadReq.mshrMissRate::total     0.039971                       # mshr miss rate for ReadReq accesses (Ratio)
system.cpu.dcache.ReadReq.avgMshrMissLatency::cpu.data 85730.804526                       # average ReadReq mshr miss latency ((Tick/Count))
system.cpu.dcache.ReadReq.avgMshrMissLatency::total 85730.804526                       # average ReadReq mshr miss latency ((Tick/Count))
system.cpu.dcache.SoftPFReq.hits::cpu.data     10497477                       # number of SoftPFReq hits (Count)
system.cpu.dcache.SoftPFReq.hits::total      10497477                       # number of SoftPFReq hits (Count)
system.cpu.dcache.SoftPFReq.misses::cpu.data       502383                       # number of SoftPFReq misses (Count)
system.cpu.dcache.SoftPFReq.misses::total       502383                       # number of SoftPFReq misses (Count)
system.cpu.dcache.SoftPFReq.accesses::cpu.data     10999860                       # number of SoftPFReq accesses(hits+misses) (Count)
system.cpu.dcache.SoftPFReq.accesses::total     10999860                       # number of SoftPFReq accesses(hits+misses) (Count)
system.cpu.dcache.SoftPFReq.missRate::cpu.data     0.045672                       # miss rate for SoftPFReq accesses (Ratio)
system.cpu.dcache.SoftPFReq.missRate::total     0.045672                       # miss rate for SoftPFReq accesses (Ratio)
system.cpu.dcache.SoftPFReq.mshrMisses::cpu.data       500008                       # number of SoftPFReq MSHR misses (Count)
system.cpu.dcache.SoftPFReq.mshrMisses::total       500008                       # number of SoftPFReq MSHR misses (Count)
system.cpu.dcache.SoftPFReq.mshrMissLatency::cpu.data  41972935750                       # number of SoftPFReq MSHR miss ticks (Tick)
system.cpu.dcache.SoftPFReq.mshrMissLatency::total  41972935750                       # number of SoftPFReq MSHR miss ticks (Tick)
system.cpu.dcache.SoftPFReq.mshrMissRate::cpu.data     0.045456                       # mshr miss rate for SoftPFReq accesses (Ratio)
system.cpu.dcache.SoftPFReq.mshrMissRate::total     0.045456                       # mshr miss rate for SoftPFReq accesses (Ratio)
system.cpu.dcache.SoftPFReq.avgMshrMissLatency::cpu.data 83944.528388                       # average SoftPFReq mshr miss latency ((Tick/Count))
system.cpu.dcache.SoftPFReq.avgMshrMissLatency::total 83944.528388                       # average SoftPFReq mshr miss latency ((Tick/Count))
system.cpu.dcache.WriteReq.hits::cpu.data     17656327                       # number of WriteReq hits (Count)
system.cpu.dcache.WriteReq.hits::total       17656327                       # number of WriteReq hits (Count)
system.cpu.dcache.WriteReq.misses::cpu.data      2375706                       # number of WriteReq misses (Count)
system.cpu.dcache.WriteReq.misses::total      2375706                       # number of WriteReq misses (Count)
system.cpu.dcache.WriteReq.missLatency::cpu.data 193418860747                       # number of WriteReq miss ticks (Tick)
system.cpu.dcache.WriteReq.missLatency::total 193418860747                       # number of WriteReq miss ticks (Tick)
system.cpu.dcache.WriteReq.accesses::cpu.data     20032033                       # number of WriteReq accesses(hits+misses) (Count)
system.cpu.dcache.WriteReq.accesses::total     20032033                       # number of WriteReq accesses(hits+misses) (Count)
system.cpu.dcache.WriteReq.missRate::cpu.data     0.118595                       # miss rate for WriteReq accesses (Ratio)
system.cpu.dcache.WriteReq.missRate::total     0.118595                       # miss rate for WriteReq accesses (Ratio)
system.cpu.dcache.WriteReq.avgMissLatency::cpu.data 81415.318540                       # average WriteReq miss latency ((Tick/Count))
system.cpu.dcache.WriteReq.avgMissLatency::total 81415.318540                       # average WriteReq miss latency ((Tick/Count))
system.cpu.dcache.WriteReq.mshrHits::cpu.data           12                       # number of WriteReq MSHR hits (Count)
system.cpu.dcache.WriteReq.mshrHits::total           12                       # number of WriteReq MSHR hits (Count)
system.cpu.dcache.WriteReq.mshrMisses::cpu.data      2375694                       # number of WriteReq MSHR misses (Count)
system.cpu.dcache.WriteReq.mshrMisses::total      2375694                       # number of WriteReq MSHR misses (Count)
system.cpu.dcache.WriteReq.mshrMissLatency::cpu.data 192230643248                       # number of WriteReq MSHR miss ticks (Tick)
system.cpu.dcache.WriteReq.mshrMissLatency::total 192230643248                       # number of WriteReq MSHR miss ticks (Tick)
system.cpu.dcache.WriteReq.mshrMissRate::cpu.data     0.118595                       # mshr miss rate for WriteReq accesses (Ratio)
system.cpu.dcache.WriteReq.mshrMissRate::total     0.118595                       # mshr miss rate for WriteReq accesses (Ratio)
system.cpu.dcache.WriteReq.avgMshrMissLatency::cpu.data 80915.573827                       # average WriteReq mshr miss latency ((Tick/Count))
system.cpu.dcache.WriteReq.avgMshrMissLatency::total 80915.573827                       # average WriteReq mshr miss latency ((Tick/Count))
system.cpu.dcache.power_state.pwrStateResidencyTicks::UNDEFINED 243295716250                       # Cumulative time (in ticks) in various power states (Tick)
system.cpu.dcache.tags.tagsInUse          1023.791016                       # Average ticks per tags in use ((Tick/Count))
system.cpu.dcache.tags.totalRefs             87915143                       # Total number of references to valid blocks. (Count)
system.cpu.dcache.tags.sampledRefs            5878424                       # Sample count of references to valid blocks. (Count)
system.cpu.dcache.tags.avgRefs              14.955563                       # Average number of references to valid blocks. ((Count/Count))
system.cpu.dcache.tags.warmupTick              168250                       # The tick when the warmup percentage was hit. (Tick)
system.cpu.dcache.tags.occupancies::cpu.data  1023.791016                       # Average occupied blocks per tick, per requestor ((Count/Tick))
system.cpu.dcache.tags.avgOccs::cpu.data     0.999796                       # Average percentage of cache occupancy ((Ratio/Tick))
system.cpu.dcache.tags.avgOccs::total        0.999796                       # Average percentage of cache occupancy ((Ratio/Tick))
system.cpu.dcache.tags.occupanciesTaskId::1024         1024                       # Occupied blocks per task id (Count)
system.cpu.dcache.tags.ageTaskId_1024::0          112                       # Occupied blocks per task id, per block age (Count)
system.cpu.dcache.tags.ageTaskId_1024::1          911                       # Occupied blocks per task id, per block age (Count)
system.cpu.dcache.tags.ageTaskId_1024::4            1                       # Occupied blocks per task id, per block age (Count)
system.cpu.dcache.tags.ratioOccsTaskId::1024            1                       # Ratio of occupied blocks and all blocks, per task id (Ratio)
system.cpu.dcache.tags.tagAccesses          218186200                       # Number of tag accesses (Count)
system.cpu.dcache.tags.dataAccesses         218186200                       # Number of data accesses (Count)
system.cpu.dcache.tags.power_state.pwrStateResidencyTicks::UNDEFINED 243295716250                       # Cumulative time (in ticks) in various power states (Tick)
system.cpu.decode.idleCycles                 11899926                       # Number of cycles decode is idle (Cycle)
system.cpu.decode.blockedCycles             907149003                       # Number of cycles decode is blocked (Cycle)
system.cpu.decode.runCycles                  39101929                       # Number of cycles decode is running (Cycle)
system.cpu.decode.unblockCycles              12752276                       # Number of cycles decode is unblocking (Cycle)
system.cpu.decode.squashCycles                2008566                       # Number of cycles decode is squashing (Cycle)
system.cpu.decode.branchResolved             11456638                       # Number of times decode resolved a branch (Count)
system.cpu.decode.branchMispred                   740                       # Number of times decode detected a branch misprediction (Count)
system.cpu.decode.decodedInsts              381594242                       # Number of instructions handled by decode (Count)
system.cpu.decode.squashedInsts                  3506                       # Number of squashed instructions handled by decode (Count)
system.cpu.dtb_walker_cache.blockedCycles::no_mshrs            0                       # number of cycles access was blocked (Cycle)
system.cpu.dtb_walker_cache.blockedCycles::no_targets            0                       # number of cycles access was blocked (Cycle)
system.cpu.dtb_walker_cache.blockedCauses::no_mshrs            0                       # number of times access was blocked (Count)
system.cpu.dtb_walker_cache.blockedCauses::no_targets            0                       # number of times access was blocked (Count)
system.cpu.dtb_walker_cache.avgBlocked::no_mshrs          nan                       # average number of cycles each access was blocked ((Cycle/Count))
system.cpu.dtb_walker_cache.avgBlocked::no_targets          nan                       # average number of cycles each access was blocked ((Cycle/Count))
system.cpu.dtb_walker_cache.replacements            0                       # number of replacements (Count)
system.cpu.dtb_walker_cache.power_state.pwrStateResidencyTicks::UNDEFINED 243295716250                       # Cumulative time (in ticks) in various power states (Tick)
system.cpu.dtb_walker_cache.tags.tagsInUse            0                       # Average ticks per tags in use ((Tick/Count))
system.cpu.dtb_walker_cache.tags.totalRefs            0                       # Total number of references to valid blocks. (Count)
system.cpu.dtb_walker_cache.tags.sampledRefs            0                       # Sample count of references to valid blocks. (Count)
system.cpu.dtb_walker_cache.tags.avgRefs          nan                       # Average number of references to valid blocks. ((Count/Count))
system.cpu.dtb_walker_cache.tags.warmupTick            0                       # The tick when the warmup percentage was hit. (Tick)
system.cpu.dtb_walker_cache.tags.tagAccesses            0                       # Number of tag accesses (Count)
system.cpu.dtb_walker_cache.tags.dataAccesses            0                       # Number of data accesses (Count)
system.cpu.dtb_walker_cache.tags.power_state.pwrStateResidencyTicks::UNDEFINED 243295716250                       # Cumulative time (in ticks) in various power states (Tick)
system.cpu.fetch.icacheStallCycles           23596990                       # Number of cycles fetch is stalled on an Icache miss (Cycle)
system.cpu.fetch.insts                      203363207                       # Number of instructions fetch has processed (Count)
system.cpu.fetch.branches                    16054651                       # Number of branches that fetch encountered (Count)
system.cpu.fetch.predictedBranches           12979966                       # Number of branches that fetch has predicted taken (Count)
system.cpu.fetch.cycles                     947300366                       # Number of cycles fetch has run and was not squashing or blocked (Cycle)
system.cpu.fetch.squashCycles                 4018598                       # Number of cycles fetch has spent squashing (Cycle)
system.cpu.fetch.miscStallCycles                  648                       # Number of cycles fetch has spent waiting on interrupts, or bad addresses, or out of MSHRs (Cycle)
system.cpu.fetch.pendingTrapStallCycles          4349                       # Number of stall cycles due to pending traps (Cycle)
system.cpu.fetch.icacheWaitRetryStallCycles           48                       # Number of stall cycles due to full MSHR (Cycle)
system.cpu.fetch.cacheLines                  23508714                       # Number of cache lines fetched (Count)
system.cpu.fetch.icacheSquashes                  4231                       # Number of outstanding Icache misses that were squashed (Count)
system.cpu.fetch.nisnDist::samples          972911700                       # Number of instructions fetched each cycle (Total) (Count)
system.cpu.fetch.nisnDist::mean              0.465785                       # Number of instructions fetched each cycle (Total) (Count)
system.cpu.fetch.nisnDist::stdev             1.755547                       # Number of instructions fetched each cycle (Total) (Count)
system.cpu.fetch.nisnDist::underflows               0      0.00%      0.00% # Number of instructions fetched each cycle (Total) (Count)
system.cpu.fetch.nisnDist::0                897820569     92.28%     92.28% # Number of instructions fetched each cycle (Total) (Count)
system.cpu.fetch.nisnDist::1                  5780272      0.59%     92.88% # Number of instructions fetched each cycle (Total) (Count)
system.cpu.fetch.nisnDist::2                  5327460      0.55%     93.42% # Number of instructions fetched each cycle (Total) (Count)
system.cpu.fetch.nisnDist::3                  2140009      0.22%     93.64% # Number of instructions fetched each cycle (Total) (Count)
system.cpu.fetch.nisnDist::4                 12613946      1.30%     94.94% # Number of instructions fetched each cycle (Total) (Count)
system.cpu.fetch.nisnDist::5                  2513007      0.26%     95.20% # Number of instructions fetched each cycle (Total) (Count)
system.cpu.fetch.nisnDist::6                  2642860      0.27%     95.47% # Number of instructions fetched each cycle (Total) (Count)
system.cpu.fetch.nisnDist::7                  1154060      0.12%     95.59% # Number of instructions fetched each cycle (Total) (Count)
system.cpu.fetch.nisnDist::8                 42919517      4.41%    100.00% # Number of instructions fetched each cycle (Total) (Count)
system.cpu.fetch.nisnDist::overflows                0      0.00%    100.00% # Number of instructions fetched each cycle (Total) (Count)
system.cpu.fetch.nisnDist::min_value                0                       # Number of instructions fetched each cycle (Total) (Count)
system.cpu.fetch.nisnDist::max_value                8                       # Number of instructions fetched each cycle (Total) (Count)
system.cpu.fetch.nisnDist::total            972911700                       # Number of instructions fetched each cycle (Total) (Count)
system.cpu.fetch.branchRate                  0.016497                       # Number of branch fetches per cycle (Ratio)
system.cpu.fetch.rate                        0.208967                       # Number of inst fetches per cycle ((Count/Cycle))
system.cpu.icache.demandHits::cpu.inst       23506133                       # number of demand (read+write) hits (Count)
system.cpu.icache.demandHits::total          23506133                       # number of demand (read+write) hits (Count)
system.cpu.icache.overallHits::cpu.inst      23506133                       # number of overall hits (Count)
system.cpu.icache.overallHits::total         23506133                       # number of overall hits (Count)
system.cpu.icache.demandMisses::cpu.inst         2581                       # number of demand (read+write) misses (Count)
system.cpu.icache.demandMisses::total            2581                       # number of demand (read+write) misses (Count)
system.cpu.icache.overallMisses::cpu.inst         2581                       # number of overall misses (Count)
system.cpu.icache.overallMisses::total           2581                       # number of overall misses (Count)
system.cpu.icache.demandMissLatency::cpu.inst    165188749                       # number of demand (read+write) miss ticks (Tick)
system.cpu.icache.demandMissLatency::total    165188749                       # number of demand (read+write) miss ticks (Tick)
system.cpu.icache.overallMissLatency::cpu.inst    165188749                       # number of overall miss ticks (Tick)
system.cpu.icache.overallMissLatency::total    165188749                       # number of overall miss ticks (Tick)
system.cpu.icache.demandAccesses::cpu.inst     23508714                       # number of demand (read+write) accesses (Count)
system.cpu.icache.demandAccesses::total      23508714                       # number of demand (read+write) accesses (Count)
system.cpu.icache.overallAccesses::cpu.inst     23508714                       # number of overall (read+write) accesses (Count)
system.cpu.icache.overallAccesses::total     23508714                       # number of overall (read+write) accesses (Count)
system.cpu.icache.demandMissRate::cpu.inst     0.000110                       # miss rate for demand accesses (Ratio)
system.cpu.icache.demandMissRate::total      0.000110                       # miss rate for demand accesses (Ratio)
system.cpu.icache.overallMissRate::cpu.inst     0.000110                       # miss rate for overall accesses (Ratio)
system.cpu.icache.overallMissRate::total     0.000110                       # miss rate for overall accesses (Ratio)
system.cpu.icache.demandAvgMissLatency::cpu.inst 64001.839985                       # average overall miss latency in ticks ((Tick/Count))
system.cpu.icache.demandAvgMissLatency::total 64001.839985                       # average overall miss latency in ticks ((Tick/Count))
system.cpu.icache.overallAvgMissLatency::cpu.inst 64001.839985                       # average overall miss latency ((Tick/Count))
system.cpu.icache.overallAvgMissLatency::total 64001.839985                       # average overall miss latency ((Tick/Count))
system.cpu.icache.blockedCycles::no_mshrs          841                       # number of cycles access was blocked (Cycle)
system.cpu.icache.blockedCycles::no_targets            0                       # number of cycles access was blocked (Cycle)
system.cpu.icache.blockedCauses::no_mshrs           15                       # number of times access was blocked (Count)
system.cpu.icache.blockedCauses::no_targets            0                       # number of times access was blocked (Count)
system.cpu.icache.avgBlocked::no_mshrs      56.066667                       # average number of cycles each access was blocked ((Cycle/Count))
system.cpu.icache.avgBlocked::no_targets          nan                       # average number of cycles each access was blocked ((Cycle/Count))
system.cpu.icache.writebacks::writebacks         1525                       # number of writebacks (Count)
system.cpu.icache.writebacks::total              1525                       # number of writebacks (Count)
system.cpu.icache.demandMshrHits::cpu.inst          539                       # number of demand (read+write) MSHR hits (Count)
system.cpu.icache.demandMshrHits::total           539                       # number of demand (read+write) MSHR hits (Count)
system.cpu.icache.overallMshrHits::cpu.inst          539                       # number of overall MSHR hits (Count)
system.cpu.icache.overallMshrHits::total          539                       # number of overall MSHR hits (Count)
system.cpu.icache.demandMshrMisses::cpu.inst         2042                       # number of demand (read+write) MSHR misses (Count)
system.cpu.icache.demandMshrMisses::total         2042                       # number of demand (read+write) MSHR misses (Count)
system.cpu.icache.overallMshrMisses::cpu.inst         2042                       # number of overall MSHR misses (Count)
system.cpu.icache.overallMshrMisses::total         2042                       # number of overall MSHR misses (Count)
system.cpu.icache.demandMshrMissLatency::cpu.inst    129266749                       # number of demand (read+write) MSHR miss ticks (Tick)
system.cpu.icache.demandMshrMissLatency::total    129266749                       # number of demand (read+write) MSHR miss ticks (Tick)
system.cpu.icache.overallMshrMissLatency::cpu.inst    129266749                       # number of overall MSHR miss ticks (Tick)
system.cpu.icache.overallMshrMissLatency::total    129266749                       # number of overall MSHR miss ticks (Tick)
system.cpu.icache.demandMshrMissRate::cpu.inst     0.000087                       # mshr miss ratio for demand accesses (Ratio)
system.cpu.icache.demandMshrMissRate::total     0.000087                       # mshr miss ratio for demand accesses (Ratio)
system.cpu.icache.overallMshrMissRate::cpu.inst     0.000087                       # mshr miss ratio for overall accesses (Ratio)
system.cpu.icache.overallMshrMissRate::total     0.000087                       # mshr miss ratio for overall accesses (Ratio)
system.cpu.icache.demandAvgMshrMissLatency::cpu.inst 63303.990695                       # average overall mshr miss latency ((Tick/Count))
system.cpu.icache.demandAvgMshrMissLatency::total 63303.990695                       # average overall mshr miss latency ((Tick/Count))
system.cpu.icache.overallAvgMshrMissLatency::cpu.inst 63303.990695                       # average overall mshr miss latency ((Tick/Count))
system.cpu.icache.overallAvgMshrMissLatency::total 63303.990695                       # average overall mshr miss latency ((Tick/Count))
system.cpu.icache.replacements                   1525                       # number of replacements (Count)
system.cpu.icache.ReadReq.hits::cpu.inst     23506133                       # number of ReadReq hits (Count)
system.cpu.icache.ReadReq.hits::total        23506133                       # number of ReadReq hits (Count)
system.cpu.icache.ReadReq.misses::cpu.inst         2581                       # number of ReadReq misses (Count)
system.cpu.icache.ReadReq.misses::total          2581                       # number of ReadReq misses (Count)
system.cpu.icache.ReadReq.missLatency::cpu.inst    165188749                       # number of ReadReq miss ticks (Tick)
system.cpu.icache.ReadReq.missLatency::total    165188749                       # number of ReadReq miss ticks (Tick)
system.cpu.icache.ReadReq.accesses::cpu.inst     23508714                       # number of ReadReq accesses(hits+misses) (Count)
system.cpu.icache.ReadReq.accesses::total     23508714                       # number of ReadReq accesses(hits+misses) (Count)
system.cpu.icache.ReadReq.missRate::cpu.inst     0.000110                       # miss rate for ReadReq accesses (Ratio)
system.cpu.icache.ReadReq.missRate::total     0.000110                       # miss rate for ReadReq accesses (Ratio)
system.cpu.icache.ReadReq.avgMissLatency::cpu.inst 64001.839985                       # average ReadReq miss latency ((Tick/Count))
system.cpu.icache.ReadReq.avgMissLatency::total 64001.839985                       # average ReadReq miss latency ((Tick/Count))
system.cpu.icache.ReadReq.mshrHits::cpu.inst          539                       # number of ReadReq MSHR hits (Count)
system.cpu.icache.ReadReq.mshrHits::total          539                       # number of ReadReq MSHR hits (Count)
system.cpu.icache.ReadReq.mshrMisses::cpu.inst         2042                       # number of ReadReq MSHR misses (Count)
system.cpu.icache.ReadReq.mshrMisses::total         2042                       # number of ReadReq MSHR misses (Count)
system.cpu.icache.ReadReq.mshrMissLatency::cpu.inst    129266749                       # number of ReadReq MSHR miss ticks (Tick)
system.cpu.icache.ReadReq.mshrMissLatency::total    129266749                       # number of ReadReq MSHR miss ticks (Tick)
system.cpu.icache.ReadReq.mshrMissRate::cpu.inst     0.000087                       # mshr miss rate for ReadReq accesses (Ratio)
system.cpu.icache.ReadReq.mshrMissRate::total     0.000087                       # mshr miss rate for ReadReq accesses (Ratio)
system.cpu.icache.ReadReq.avgMshrMissLatency::cpu.inst 63303.990695                       # average ReadReq mshr miss latency ((Tick/Count))
system.cpu.icache.ReadReq.avgMshrMissLatency::total 63303.990695                       # average ReadReq mshr miss latency ((Tick/Count))
system.cpu.icache.power_state.pwrStateResidencyTicks::UNDEFINED 243295716250                       # Cumulative time (in ticks) in various power states (Tick)
system.cpu.icache.tags.tagsInUse           502.474978                       # Average ticks per tags in use ((Tick/Count))
system.cpu.icache.tags.totalRefs             23508174                       # Total number of references to valid blocks. (Count)
system.cpu.icache.tags.sampledRefs               2041                       # Sample count of references to valid blocks. (Count)
system.cpu.icache.tags.avgRefs           11517.968643                       # Average number of references to valid blocks. ((Count/Count))
system.cpu.icache.tags.warmupTick               85250                       # The tick when the warmup percentage was hit. (Tick)
system.cpu.icache.tags.occupancies::cpu.inst   502.474978                       # Average occupied blocks per tick, per requestor ((Count/Tick))
system.cpu.icache.tags.avgOccs::cpu.inst     0.981396                       # Average percentage of cache occupancy ((Ratio/Tick))
system.cpu.icache.tags.avgOccs::total        0.981396                       # Average percentage of cache occupancy ((Ratio/Tick))
system.cpu.icache.tags.occupanciesTaskId::1024          509                       # Occupied blocks per task id (Count)
system.cpu.icache.tags.ageTaskId_1024::0          128                       # Occupied blocks per task id, per block age (Count)
system.cpu.icache.tags.ageTaskId_1024::1            1                       # Occupied blocks per task id, per block age (Count)
system.cpu.icache.tags.ageTaskId_1024::4          380                       # Occupied blocks per task id, per block age (Count)
system.cpu.icache.tags.ratioOccsTaskId::1024     0.994141                       # Ratio of occupied blocks and all blocks, per task id (Ratio)
system.cpu.icache.tags.tagAccesses           47019469                       # Number of tag accesses (Count)
system.cpu.icache.tags.dataAccesses          47019469                       # Number of data accesses (Count)
system.cpu.icache.tags.power_state.pwrStateResidencyTicks::UNDEFINED 243295716250                       # Cumulative time (in ticks) in various power states (Tick)
system.cpu.iew.idleCycles                           0                       # Number of cycles IEW is idle (Cycle)
system.cpu.iew.squashCycles                   2008566                       # Number of cycles IEW is squashing (Cycle)
system.cpu.iew.blockCycles                   53678145                       # Number of cycles IEW is blocking (Cycle)
system.cpu.iew.unblockCycles                200393862                       # Number of cycles IEW is unblocking (Cycle)
system.cpu.iew.dispatchedInsts              358998045                       # Number of instructions dispatched to IQ (Count)
system.cpu.iew.dispSquashedInsts                  491                       # Number of squashed instructions skipped by dispatch (Count)
system.cpu.iew.dispLoadInsts                 86143206                       # Number of dispatched load instructions (Count)
system.cpu.iew.dispStoreInsts                86050593                       # Number of dispatched store instructions (Count)
system.cpu.iew.dispNonSpecInsts                    24                       # Number of dispatched non-speculative instructions (Count)
system.cpu.iew.iqFullEvents                      2187                       # Number of times the IQ has become full, causing a stall (Count)
system.cpu.iew.lsqFullEvents                200581134                       # Number of times the LSQ has become full, causing a stall (Count)
system.cpu.iew.memOrderViolationEvents            158                       # Number of memory order violations (Count)
system.cpu.iew.predictedTakenIncorrect           2253                       # Number of branches that were predicted taken incorrectly (Count)
system.cpu.iew.predictedNotTakenIncorrect         4974                       # Number of branches that were predicted not taken incorrectly (Count)
system.cpu.iew.branchMispredicts                 7227                       # Number of branch mispredicts detected at execute (Count)
system.cpu.iew.instsToCommit                358893034                       # Cumulative count of insts sent to commit (Count)
system.cpu.iew.writebackCount               336886109                       # Cumulative count of insts written-back (Count)
system.cpu.iew.producerInst                 178854161                       # Number of instructions producing a value (Count)
system.cpu.iew.consumerInst                 232495569                       # Number of instructions consuming a value (Count)
system.cpu.iew.wbRate                        0.346169                       # Insts written-back per cycle ((Count/Cycle))
system.cpu.iew.wbFanout                      0.769280                       # Average fanout of values written-back ((Count/Count))
system.cpu.interrupts.clk_domain.clock           4000                       # Clock period in ticks (Tick)
system.cpu.itb_walker_cache.blockedCycles::no_mshrs            0                       # number of cycles access was blocked (Cycle)
system.cpu.itb_walker_cache.blockedCycles::no_targets            0                       # number of cycles access was blocked (Cycle)
system.cpu.itb_walker_cache.blockedCauses::no_mshrs            0                       # number of times access was blocked (Count)
system.cpu.itb_walker_cache.blockedCauses::no_targets            0                       # number of times access was blocked (Count)
system.cpu.itb_walker_cache.avgBlocked::no_mshrs          nan                       # average number of cycles each access was blocked ((Cycle/Count))
system.cpu.itb_walker_cache.avgBlocked::no_targets          nan                       # average number of cycles each access was blocked ((Cycle/Count))
system.cpu.itb_walker_cache.replacements            0                       # number of replacements (Count)
system.cpu.itb_walker_cache.power_state.pwrStateResidencyTicks::UNDEFINED 243295716250                       # Cumulative time (in ticks) in various power states (Tick)
system.cpu.itb_walker_cache.tags.tagsInUse            0                       # Average ticks per tags in use ((Tick/Count))
system.cpu.itb_walker_cache.tags.totalRefs            0                       # Total number of references to valid blocks. (Count)
system.cpu.itb_walker_cache.tags.sampledRefs            0                       # Sample count of references to valid blocks. (Count)
system.cpu.itb_walker_cache.tags.avgRefs          nan                       # Average number of references to valid blocks. ((Count/Count))
system.cpu.itb_walker_cache.tags.warmupTick            0                       # The tick when the warmup percentage was hit. (Tick)
system.cpu.itb_walker_cache.tags.tagAccesses            0                       # Number of tag accesses (Count)
system.cpu.itb_walker_cache.tags.dataAccesses            0                       # Number of data accesses (Count)
system.cpu.itb_walker_cache.tags.power_state.pwrStateResidencyTicks::UNDEFINED 243295716250                       # Cumulative time (in ticks) in various power states (Tick)
system.cpu.lsq0.forwLoads                        8532                       # Number of loads that had data forwarded from stores (Count)
system.cpu.lsq0.squashedLoads                50062111                       # Number of loads squashed (Count)
system.cpu.lsq0.ignoredResponses                   30                       # Number of memory responses ignored because the instruction is squashed (Count)
system.cpu.lsq0.memOrderViolation                 158                       # Number of memory ordering violations (Count)
system.cpu.lsq0.squashedStores               64018598                       # Number of stores squashed (Count)
system.cpu.lsq0.rescheduledLoads                   11                       # Number of loads that were rescheduled (Count)
system.cpu.lsq0.blockedByCache                   1020                       # Number of times an access to memory failed due to the cache being blocked (Count)
[...]
system.membus.pktSize_system.l2.mem_side_port::system.mem_ctrls08.port     16760448                       # Cumulative packet size per connected requestor and responder (Byte)
system.membus.pktSize_system.l2.mem_side_port::system.mem_ctrls09.port     16760064                       # Cumulative packet size per connected requestor and responder (Byte)
system.membus.pktSize_system.l2.mem_side_port::system.mem_ctrls10.port     16760384                       # Cumulative packet size per connected requestor and responder (Byte)
system.membus.pktSize_system.l2.mem_side_port::system.mem_ctrls11.port     16759424                       # Cumulative packet size per connected requestor and responder (Byte)
system.membus.pktSize_system.l2.mem_side_port::system.mem_ctrls12.port     16759680                       # Cumulative packet size per connected requestor and responder (Byte)
system.membus.pktSize_system.l2.mem_side_port::system.mem_ctrls13.port     16760000                       # Cumulative packet size per connected requestor and responder (Byte)
system.membus.pktSize_system.l2.mem_side_port::system.mem_ctrls14.port     16759936                       # Cumulative packet size per connected requestor and responder (Byte)
system.membus.pktSize_system.l2.mem_side_port::system.mem_ctrls15.port     16760448                       # Cumulative packet size per connected requestor and responder (Byte)
system.membus.pktSize_system.l2.mem_side_port::system.mem_ctrls16.port     16762176                       # Cumulative packet size per connected requestor and responder (Byte)
system.membus.pktSize_system.l2.mem_side_port::system.mem_ctrls17.port     16762944                       # Cumulative packet size per connected requestor and responder (Byte)
system.membus.pktSize_system.l2.mem_side_port::system.mem_ctrls18.port     16764032                       # Cumulative packet size per connected requestor and responder (Byte)
system.membus.pktSize_system.l2.mem_side_port::system.mem_ctrls19.port     16761792                       # Cumulative packet size per connected requestor and responder (Byte)
system.membus.pktSize_system.l2.mem_side_port::system.mem_ctrls20.port     16762560                       # Cumulative packet size per connected requestor and responder (Byte)
system.membus.pktSize_system.l2.mem_side_port::system.mem_ctrls21.port     16760960                       # Cumulative packet size per connected requestor and responder (Byte)
system.membus.pktSize_system.l2.mem_side_port::system.mem_ctrls22.port     16760320                       # Cumulative packet size per connected requestor and responder (Byte)
system.membus.pktSize_system.l2.mem_side_port::system.mem_ctrls23.port     16761536                       # Cumulative packet size per connected requestor and responder (Byte)
system.membus.pktSize_system.l2.mem_side_port::system.mem_ctrls24.port     16761344                       # Cumulative packet size per connected requestor and responder (Byte)
system.membus.pktSize_system.l2.mem_side_port::system.mem_ctrls25.port     16762368                       # Cumulative packet size per connected requestor and responder (Byte)
system.membus.pktSize_system.l2.mem_side_port::system.mem_ctrls26.port     16761024                       # Cumulative packet size per connected requestor and responder (Byte)
system.membus.pktSize_system.l2.mem_side_port::system.mem_ctrls27.port     16758912                       # Cumulative packet size per connected requestor and responder (Byte)
system.membus.pktSize_system.l2.mem_side_port::system.mem_ctrls28.port     16759104                       # Cumulative packet size per connected requestor and responder (Byte)
system.membus.pktSize_system.l2.mem_side_port::system.mem_ctrls29.port     16759616                       # Cumulative packet size per connected requestor and responder (Byte)
system.membus.pktSize_system.l2.mem_side_port::system.mem_ctrls30.port     16760192                       # Cumulative packet size per connected requestor and responder (Byte)
system.membus.pktSize_system.l2.mem_side_port::system.mem_ctrls31.port     16759936                       # Cumulative packet size per connected requestor and responder (Byte)
system.membus.pktSize_system.l2.mem_side_port::total    536343104                       # Cumulative packet size per connected requestor and responder (Byte)
system.membus.pktSize::total                536343104                       # Cumulative packet size per connected requestor and responder (Byte)
system.membus.snoops                                0                       # Total snoops (Count)
system.membus.snoopTraffic                          0                       # Total snoop traffic (Byte)
system.membus.snoopFanout::samples            5879623                       # Request fanout histogram (Count)
system.membus.snoopFanout::mean                     0                       # Request fanout histogram (Count)
system.membus.snoopFanout::stdev                    0                       # Request fanout histogram (Count)
system.membus.snoopFanout::underflows               0      0.00%      0.00% # Request fanout histogram (Count)
system.membus.snoopFanout::0                  5879623    100.00%    100.00% # Request fanout histogram (Count)
system.membus.snoopFanout::1                        0      0.00%    100.00% # Request fanout histogram (Count)
system.membus.snoopFanout::overflows                0      0.00%    100.00% # Request fanout histogram (Count)
system.membus.snoopFanout::min_value                0                       # Request fanout histogram (Count)
system.membus.snoopFanout::max_value                0                       # Request fanout histogram (Count)
system.membus.snoopFanout::total              5879623                       # Request fanout histogram (Count)
system.membus.power_state.pwrStateResidencyTicks::UNDEFINED 243295716250                       # Cumulative time (in ticks) in various power states (Tick)
system.membus.reqLayer10.occupancy          769599207                       # Layer occupancy (ticks) (Tick)
system.membus.reqLayer10.utilization              0.0                       # Layer utilization (Ratio)
system.membus.reqLayer11.occupancy          769353355                       # Layer occupancy (ticks) (Tick)
system.membus.reqLayer11.utilization              0.0                       # Layer utilization (Ratio)
system.membus.reqLayer12.occupancy          769614720                       # Layer occupancy (ticks) (Tick)
system.membus.reqLayer12.utilization              0.0                       # Layer utilization (Ratio)
system.membus.reqLayer13.occupancy          769601351                       # Layer occupancy (ticks) (Tick)
system.membus.reqLayer13.utilization              0.0                       # Layer utilization (Ratio)
system.membus.reqLayer14.occupancy          769390857                       # Layer occupancy (ticks) (Tick)
system.membus.reqLayer14.utilization              0.0                       # Layer utilization (Ratio)
system.membus.reqLayer15.occupancy          769815059                       # Layer occupancy (ticks) (Tick)
system.membus.reqLayer15.utilization              0.0                       # Layer utilization (Ratio)
system.membus.reqLayer16.occupancy          769433226                       # Layer occupancy (ticks) (Tick)
system.membus.reqLayer16.utilization              0.0                       # Layer utilization (Ratio)
system.membus.reqLayer17.occupancy          769622555                       # Layer occupancy (ticks) (Tick)
system.membus.reqLayer17.utilization              0.0                       # Layer utilization (Ratio)
system.membus.reqLayer18.occupancy          769475550                       # Layer occupancy (ticks) (Tick)
system.membus.reqLayer18.utilization              0.0                       # Layer utilization (Ratio)
system.membus.reqLayer19.occupancy          769804282                       # Layer occupancy (ticks) (Tick)
system.membus.reqLayer19.utilization              0.0                       # Layer utilization (Ratio)
system.membus.reqLayer2.occupancy           769414385                       # Layer occupancy (ticks) (Tick)
system.membus.reqLayer2.utilization               0.0                       # Layer utilization (Ratio)
system.membus.reqLayer20.occupancy          769825690                       # Layer occupancy (ticks) (Tick)
system.membus.reqLayer20.utilization              0.0                       # Layer utilization (Ratio)
system.membus.reqLayer21.occupancy          769481091                       # Layer occupancy (ticks) (Tick)
system.membus.reqLayer21.utilization              0.0                       # Layer utilization (Ratio)
system.membus.reqLayer22.occupancy          769665414                       # Layer occupancy (ticks) (Tick)
system.membus.reqLayer22.utilization              0.0                       # Layer utilization (Ratio)
system.membus.reqLayer23.occupancy          769552804                       # Layer occupancy (ticks) (Tick)
system.membus.reqLayer23.utilization              0.0                       # Layer utilization (Ratio)
system.membus.reqLayer24.occupancy          769445281                       # Layer occupancy (ticks) (Tick)
system.membus.reqLayer24.utilization              0.0                       # Layer utilization (Ratio)
system.membus.reqLayer25.occupancy          769635376                       # Layer occupancy (ticks) (Tick)
system.membus.reqLayer25.utilization              0.0                       # Layer utilization (Ratio)
system.membus.reqLayer26.occupancy          769491463                       # Layer occupancy (ticks) (Tick)
system.membus.reqLayer26.utilization              0.0                       # Layer utilization (Ratio)
system.membus.reqLayer27.occupancy          769584417                       # Layer occupancy (ticks) (Tick)
system.membus.reqLayer27.utilization              0.0                       # Layer utilization (Ratio)
system.membus.reqLayer28.occupancy          769643023                       # Layer occupancy (ticks) (Tick)
system.membus.reqLayer28.utilization              0.0                       # Layer utilization (Ratio)
system.membus.reqLayer29.occupancy          769419325                       # Layer occupancy (ticks) (Tick)
system.membus.reqLayer29.utilization              0.0                       # Layer utilization (Ratio)
system.membus.reqLayer3.occupancy           769627786                       # Layer occupancy (ticks) (Tick)
system.membus.reqLayer3.utilization               0.0                       # Layer utilization (Ratio)
system.membus.reqLayer30.occupancy          769576147                       # Layer occupancy (ticks) (Tick)
system.membus.reqLayer30.utilization              0.0                       # Layer utilization (Ratio)
system.membus.reqLayer31.occupancy          769297871                       # Layer occupancy (ticks) (Tick)
system.membus.reqLayer31.utilization              0.0                       # Layer utilization (Ratio)
system.membus.reqLayer32.occupancy          769576109                       # Layer occupancy (ticks) (Tick)
system.membus.reqLayer32.utilization              0.0                       # Layer utilization (Ratio)
system.membus.reqLayer33.occupancy          769510286                       # Layer occupancy (ticks) (Tick)
system.membus.reqLayer33.utilization              0.0                       # Layer utilization (Ratio)
system.membus.reqLayer4.occupancy           769476938                       # Layer occupancy (ticks) (Tick)
system.membus.reqLayer4.utilization               0.0                       # Layer utilization (Ratio)
system.membus.reqLayer5.occupancy           769928859                       # Layer occupancy (ticks) (Tick)
system.membus.reqLayer5.utilization               0.0                       # Layer utilization (Ratio)
system.membus.reqLayer6.occupancy           769502204                       # Layer occupancy (ticks) (Tick)
system.membus.reqLayer6.utilization               0.0                       # Layer utilization (Ratio)
system.membus.reqLayer7.occupancy           769746853                       # Layer occupancy (ticks) (Tick)
system.membus.reqLayer7.utilization               0.0                       # Layer utilization (Ratio)
system.membus.reqLayer8.occupancy           769618963                       # Layer occupancy (ticks) (Tick)
system.membus.reqLayer8.utilization               0.0                       # Layer utilization (Ratio)
system.membus.reqLayer9.occupancy           769570858                       # Layer occupancy (ticks) (Tick)
system.membus.reqLayer9.utilization               0.0                       # Layer utilization (Ratio)
system.membus.respLayer1.occupancy        29414308500                       # Layer occupancy (ticks) (Tick)
system.membus.respLayer1.utilization              0.1                       # Layer utilization (Ratio)
system.membus.snoop_filter.totRequests       11726092                       # Total number of requests made to the snoop filter. (Count)
system.membus.snoop_filter.hitSingleRequests      5846475                       # Number of requests hitting in the snoop filter with a single holder of the requested data. (Count)
system.membus.snoop_filter.hitMultiRequests            0                       # Number of requests hitting in the snoop filter with multiple (>1) holders of the requested data. (Count)
system.membus.snoop_filter.totSnoops                0                       # Total number of snoops made to the snoop filter. (Count)
system.membus.snoop_filter.hitSingleSnoops            0                       # Number of snoops hitting in the snoop filter with a single holder of the requested data. (Count)
system.membus.snoop_filter.hitMultiSnoops            0                       # Number of snoops hitting in the snoop filter with multiple (>1) holders of the requested data. (Count)
system.tol2bus.transDist::ReadResp            3504775                       # Transaction distribution (Count)
system.tol2bus.transDist::WritebackDirty      5001653                       # Transaction distribution (Count)
system.tol2bus.transDist::WritebackClean         1525                       # Transaction distribution (Count)
system.tol2bus.transDist::CleanEvict          6722848                       # Transaction distribution (Count)
system.tol2bus.transDist::UpgradeReq                4                       # Transaction distribution (Count)
system.tol2bus.transDist::UpgradeResp               4                       # Transaction distribution (Count)
system.tol2bus.transDist::ReadExReq           2375690                       # Transaction distribution (Count)
system.tol2bus.transDist::ReadExResp          2375690                       # Transaction distribution (Count)
system.tol2bus.transDist::ReadCleanReq           2042                       # Transaction distribution (Count)
system.tol2bus.transDist::ReadSharedReq       3502734                       # Transaction distribution (Count)
system.tol2bus.pktCount_system.cpu.icache.mem_side_port::system.l2.cpu_side_port         5605                       # Packet count per connected requestor and responder (Count)
system.tol2bus.pktCount_system.cpu.dcache.mem_side_port::system.l2.cpu_side_port     17634256                       # Packet count per connected requestor and responder (Count)
system.tol2bus.pktCount::total               17639861                       # Packet count per connected requestor and responder (Count)
system.tol2bus.pktSize_system.cpu.icache.mem_side_port::system.l2.cpu_side_port       228032                       # Cumulative packet size per connected requestor and responder (Byte)
system.tol2bus.pktSize_system.cpu.dcache.mem_side_port::system.l2.cpu_side_port    536277696                       # Cumulative packet size per connected requestor and responder (Byte)
system.tol2bus.pktSize::total               536505728                       # Cumulative packet size per connected requestor and responder (Byte)
system.tol2bus.snoops                         5847104                       # Total snoops (Count)
system.tol2bus.snoopTraffic                 160047424                       # Total snoop traffic (Byte)
system.tol2bus.snoopFanout::samples          11727571                       # Request fanout histogram (Count)
system.tol2bus.snoopFanout::mean             0.000062                       # Request fanout histogram (Count)
system.tol2bus.snoopFanout::stdev            0.007900                       # Request fanout histogram (Count)
system.tol2bus.snoopFanout::underflows              0      0.00%      0.00% # Request fanout histogram (Count)
system.tol2bus.snoopFanout::0                11726842     99.99%     99.99% # Request fanout histogram (Count)
system.tol2bus.snoopFanout::1                     728      0.01%    100.00% # Request fanout histogram (Count)
system.tol2bus.snoopFanout::2                       1      0.00%    100.00% # Request fanout histogram (Count)
system.tol2bus.snoopFanout::3                       0      0.00%    100.00% # Request fanout histogram (Count)
system.tol2bus.snoopFanout::4                       0      0.00%    100.00% # Request fanout histogram (Count)
system.tol2bus.snoopFanout::overflows               0      0.00%    100.00% # Request fanout histogram (Count)
system.tol2bus.snoopFanout::min_value               0                       # Request fanout histogram (Count)
system.tol2bus.snoopFanout::max_value               2                       # Request fanout histogram (Count)
system.tol2bus.snoopFanout::total            11727571                       # Request fanout histogram (Count)
system.tol2bus.power_state.pwrStateResidencyTicks::UNDEFINED 243295716250                       # Cumulative time (in ticks) in various power states (Tick)
system.tol2bus.reqLayer0.occupancy         4191068750                       # Layer occupancy (ticks) (Tick)
system.tol2bus.reqLayer0.utilization              0.0                       # Layer utilization (Ratio)
system.tol2bus.respLayer0.occupancy           1530999                       # Layer occupancy (ticks) (Tick)
system.tol2bus.respLayer0.utilization             0.0                       # Layer utilization (Ratio)
system.tol2bus.respLayer1.occupancy        4408819249                       # Layer occupancy (ticks) (Tick)
system.tol2bus.respLayer1.utilization             0.0                       # Layer utilization (Ratio)
system.tol2bus.snoop_filter.totRequests      11759395                       # Total number of requests made to the snoop filter. (Count)
system.tol2bus.snoop_filter.hitSingleRequests      5878933                       # Number of requests hitting in the snoop filter with a single holder of the requested data. (Count)
system.tol2bus.snoop_filter.hitMultiRequests           49                       # Number of requests hitting in the snoop filter with multiple (>1) holders of the requested data. (Count)
system.tol2bus.snoop_filter.totSnoops             672                       # Total number of snoops made to the snoop filter. (Count)
system.tol2bus.snoop_filter.hitSingleSnoops          671                       # Number of snoops hitting in the snoop filter with a single holder of the requested data. (Count)
system.tol2bus.snoop_filter.hitMultiSnoops            1                       # Number of snoops hitting in the snoop filter with multiple (>1) holders of the requested data. (Count)
system.voltage_domain.voltage                       1                       # Voltage in Volts (Volt)
system.workload.inst.arm                            0                       # number of arm instructions executed (Count)
system.workload.inst.quiesce                        0                       # number of quiesce instructions executed (Count)

---------- End Simulation Statistics   ----------
