
---------- Begin Simulation Statistics ----------
simSeconds                                   0.025542                       # Number of seconds simulated (Second)
simTicks                                  25542344500                       # Number of ticks simulated (Tick)
finalTick                                 25542344500                       # Number of ticks from beginning of simulation (restored from checkpoints and never reset) (Tick)
simFreq                                  1000000000000                       # The number of ticks per simulated second ((Tick/Second))
hostSeconds                                   1234.65                       # Real time elapsed on the host (Second)
hostTickRate                                 20687966                       # The number of ticks simulated per host second (ticks/s) ((Tick/Second))
hostMemory                                    1352660                       # Number of bytes of host memory used (Byte)
simInsts                                    176192790                       # Number of instructions simulated (Count)
simOps                                      309511030                       # Number of ops (including micro ops) simulated (Count)
hostInstRate                                   142707                       # Simulator instruction rate (inst/s) ((Count/Second))
hostOpRate                                     250688                       # Simulator op (including micro ops) rate (op/s) ((Count/Second))
system.clk_domain.clock                          1000                       # Clock period in ticks (Tick)
system.cpu0.numCycles                       102169379                       # Number of cpu cycles simulated (Cycle)
system.cpu0.numWorkItemsStarted                     0                       # Number of work items this cpu started (Count)
system.cpu0.numWorkItemsCompleted                   0                       # Number of work items this cpu completed (Count)
system.cpu0.instsAdded                       46404204                       # Number of instructions added to the IQ (excludes non-spec) (Count)
system.cpu0.nonSpecInstsAdded                    1423                       # Number of non-speculative instructions added to the IQ (Count)
system.cpu0.instsIssued                      46325468                       # Number of instructions issued (Count)
system.cpu0.squashedInstsIssued                  1952                       # Number of squashed instructions issued (Count)
system.cpu0.squashedInstsExamined              578546                       # Number of squashed instructions iterated over during squash; mainly for profiling (Count)
system.cpu0.squashedOperandsExamined           770814                       # Number of squashed operands that are examined and possibly removed from graph (Count)
system.cpu0.squashedNonSpecRemoved                307                       # Number of squashed non-spec instructions that were removed (Count)
system.cpu0.numIssuedDist::samples          101782333                       # Number of insts issued each cycle (Count)
system.cpu0.numIssuedDist::mean              0.455143                       # Number of insts issued each cycle (Count)
system.cpu0.numIssuedDist::stdev             1.321582                       # Number of insts issued each cycle (Count)
system.cpu0.numIssuedDist::underflows               0      0.00%      0.00% # Number of insts issued each cycle (Count)
system.cpu0.numIssuedDist::0                 86157212     84.65%     84.65% # Number of insts issued each cycle (Count)
system.cpu0.numIssuedDist::1                  4623890      4.54%     89.19% # Number of insts issued each cycle (Count)
system.cpu0.numIssuedDist::2                  3911728      3.84%     93.03% # Number of insts issued each cycle (Count)
system.cpu0.numIssuedDist::3                  1624577      1.60%     94.63% # Number of insts issued each cycle (Count)
system.cpu0.numIssuedDist::4                  2333404      2.29%     96.92% # Number of insts issued each cycle (Count)
system.cpu0.numIssuedDist::5                   819720      0.81%     97.73% # Number of insts issued each cycle (Count)
system.cpu0.numIssuedDist::6                  1007212      0.99%     98.72% # Number of insts issued each cycle (Count)
system.cpu0.numIssuedDist::7                   907817      0.89%     99.61% # Number of insts issued each cycle (Count)
system.cpu0.numIssuedDist::8                   396773      0.39%    100.00% # Number of insts issued each cycle (Count)
system.cpu0.numIssuedDist::overflows                0      0.00%    100.00% # Number of insts issued each cycle (Count)
system.cpu0.numIssuedDist::min_value                0                       # Number of insts issued each cycle (Count)
system.cpu0.numIssuedDist::max_value                8                       # Number of insts issued each cycle (Count)
system.cpu0.numIssuedDist::total            101782333                       # Number of insts issued each cycle (Count)
system.cpu0.statFuBusy::No_OpClass                  0      0.00%      0.00% # attempts to use FU when none available (Count)
system.cpu0.statFuBusy::IntAlu                  13436      1.74%      1.74% # attempts to use FU when none available (Count)
system.cpu0.statFuBusy::IntMult                     0      0.00%      1.74% # attempts to use FU when none available (Count)
system.cpu0.statFuBusy::IntDiv                      0      0.00%      1.74% # attempts to use FU when none available (Count)
system.cpu0.statFuBusy::FloatAdd                    0      0.00%      1.74% # attempts to use FU when none available (Count)
system.cpu0.statFuBusy::FloatCmp                    0      0.00%      1.74% # attempts to use FU when none available (Count)
system.cpu0.statFuBusy::FloatCvt                    0      0.00%      1.74% # attempts to use FU when none available (Count)
system.cpu0.statFuBusy::FloatMult                   0      0.00%      1.74% # attempts to use FU when none available (Count)
system.cpu0.statFuBusy::FloatMultAcc                0      0.00%      1.74% # attempts to use FU when none available (Count)
system.cpu0.statFuBusy::FloatDiv                    0      0.00%      1.74% # attempts to use FU when none available (Count)
system.cpu0.statFuBusy::FloatMisc                   0      0.00%      1.74% # attempts to use FU when none available (Count)
system.cpu0.statFuBusy::FloatSqrt                   0      0.00%      1.74% # attempts to use FU when none available (Count)
system.cpu0.statFuBusy::SimdAdd                     2      0.00%      1.74% # attempts to use FU when none available (Count)
system.cpu0.statFuBusy::SimdAddAcc                  0      0.00%      1.74% # attempts to use FU when none available (Count)
system.cpu0.statFuBusy::SimdAlu                   117      0.02%      1.75% # attempts to use FU when none available (Count)
system.cpu0.statFuBusy::SimdCmp                     0      0.00%      1.75% # attempts to use FU when none available (Count)
system.cpu0.statFuBusy::SimdCvt                   103      0.01%      1.76% # attempts to use FU when none available (Count)
system.cpu0.statFuBusy::SimdMisc                   64      0.01%      1.77% # attempts to use FU when none available (Count)
system.cpu0.statFuBusy::SimdMult                    0      0.00%      1.77% # attempts to use FU when none available (Count)
system.cpu0.statFuBusy::SimdMultAcc                 0      0.00%      1.77% # attempts to use FU when none available (Count)
system.cpu0.statFuBusy::SimdShift                  24      0.00%      1.78% # attempts to use FU when none available (Count)
system.cpu0.statFuBusy::SimdShiftAcc                0      0.00%      1.78% # attempts to use FU when none available (Count)
system.cpu0.statFuBusy::SimdDiv                     0      0.00%      1.78% # attempts to use FU when none available (Count)
system.cpu0.statFuBusy::SimdSqrt                    0      0.00%      1.78% # attempts to use FU when none available (Count)
system.cpu0.statFuBusy::SimdFloatAdd           721198     93.14%     94.92% # attempts to use FU when none available (Count)
system.cpu0.statFuBusy::SimdFloatAlu                0      0.00%     94.92% # attempts to use FU when none available (Count)
system.cpu0.statFuBusy::SimdFloatCmp                0      0.00%     94.92% # attempts to use FU when none available (Count)
system.cpu0.statFuBusy::SimdFloatCvt                0      0.00%     94.92% # attempts to use FU when none available (Count)
system.cpu0.statFuBusy::SimdFloatDiv                0      0.00%     94.92% # attempts to use FU when none available (Count)
system.cpu0.statFuBusy::SimdFloatMisc               0      0.00%     94.92% # attempts to use FU when none available (Count)
system.cpu0.statFuBusy::SimdFloatMult               0      0.00%     94.92% # attempts to use FU when none available (Count)
system.cpu0.statFuBusy::SimdFloatMultAcc            0      0.00%     94.92% # attempts to use FU when none available (Count)
system.cpu0.statFuBusy::SimdFloatSqrt               0      0.00%     94.92% # attempts to use FU when none available (Count)
system.cpu0.statFuBusy::SimdReduceAdd               0      0.00%     94.92% # attempts to use FU when none available (Count)
system.cpu0.statFuBusy::SimdReduceAlu               0      0.00%     94.92% # attempts to use FU when none available (Count)
system.cpu0.statFuBusy::SimdReduceCmp               0      0.00%     94.92% # attempts to use FU when none available (Count)
system.cpu0.statFuBusy::SimdFloatReduceAdd            0      0.00%     94.92% # attempts to use FU when none available (Count)
system.cpu0.statFuBusy::SimdFloatReduceCmp            0      0.00%     94.92% # attempts to use FU when none available (Count)
system.cpu0.statFuBusy::SimdAes                     0      0.00%     94.92% # attempts to use FU when none available (Count)
system.cpu0.statFuBusy::SimdAesMix                  0      0.00%     94.92% # attempts to use FU when none available (Count)
system.cpu0.statFuBusy::SimdSha1Hash                0      0.00%     94.92% # attempts to use FU when none available (Count)
system.cpu0.statFuBusy::SimdSha1Hash2               0      0.00%     94.92% # attempts to use FU when none available (Count)
system.cpu0.statFuBusy::SimdSha256Hash              0      0.00%     94.92% # attempts to use FU when none available (Count)
system.cpu0.statFuBusy::SimdSha256Hash2             0      0.00%     94.92% # attempts to use FU when none available (Count)
system.cpu0.statFuBusy::SimdShaSigma2               0      0.00%     94.92% # attempts to use FU when none available (Count)
system.cpu0.statFuBusy::SimdShaSigma3               0      0.00%     94.92% # attempts to use FU when none available (Count)
system.cpu0.statFuBusy::SimdPredAlu                 0      0.00%     94.92% # attempts to use FU when none available (Count)
system.cpu0.statFuBusy::MemRead                  2088      0.27%     95.19% # attempts to use FU when none available (Count)
system.cpu0.statFuBusy::MemWrite                 1446      0.19%     95.38% # attempts to use FU when none available (Count)
system.cpu0.statFuBusy::FloatMemRead             7527      0.97%     96.35% # attempts to use FU when none available (Count)
system.cpu0.statFuBusy::FloatMemWrite           28281      3.65%    100.00% # attempts to use FU when none available (Count)
system.cpu0.statFuBusy::IprAccess                   0      0.00%    100.00% # attempts to use FU when none available (Count)
system.cpu0.statFuBusy::InstPrefetch                0      0.00%    100.00% # attempts to use FU when none available (Count)
system.cpu0.statIssuedInstType_0::No_OpClass         6525      0.01%      0.01% # Number of instructions issued per FU type, per thread (Count)
system.cpu0.statIssuedInstType_0::IntAlu     23450502     50.62%     50.64% # Number of instructions issued per FU type, per thread (Count)
system.cpu0.statIssuedInstType_0::IntMult          258      0.00%     50.64% # Number of instructions issued per FU type, per thread (Count)
system.cpu0.statIssuedInstType_0::IntDiv         2929      0.01%     50.64% # Number of instructions issued per FU type, per thread (Count)
system.cpu0.statIssuedInstType_0::FloatAdd      3569141      7.70%     58.35% # Number of instructions issued per FU type, per thread (Count)
system.cpu0.statIssuedInstType_0::FloatCmp            0      0.00%     58.35% # Number of instructions issued per FU type, per thread (Count)
system.cpu0.statIssuedInstType_0::FloatCvt          550      0.00%     58.35% # Number of instructions issued per FU type, per thread (Count)
system.cpu0.statIssuedInstType_0::FloatMult            0      0.00%     58.35% # Number of instructions issued per FU type, per thread (Count)
system.cpu0.statIssuedInstType_0::FloatMultAcc            0      0.00%     58.35% # Number of instructions issued per FU type, per thread (Count)
system.cpu0.statIssuedInstType_0::FloatDiv            0      0.00%     58.35% # Number of instructions issued per FU type, per thread (Count)
system.cpu0.statIssuedInstType_0::FloatMisc            0      0.00%     58.35% # Number of instructions issued per FU type, per thread (Count)
system.cpu0.statIssuedInstType_0::FloatSqrt            0      0.00%     58.35% # Number of instructions issued per FU type, per thread (Count)
system.cpu0.statIssuedInstType_0::SimdAdd         2658      0.01%     58.35% # Number of instructions issued per FU type, per thread (Count)
system.cpu0.statIssuedInstType_0::SimdAddAcc            0      0.00%     58.35% # Number of instructions issued per FU type, per thread (Count)
system.cpu0.statIssuedInstType_0::SimdAlu        27169      0.06%     58.41% # Number of instructions issued per FU type, per thread (Count)
system.cpu0.statIssuedInstType_0::SimdCmp           76      0.00%     58.41% # Number of instructions issued per FU type, per thread (Count)
system.cpu0.statIssuedInstType_0::SimdCvt         6361      0.01%     58.43% # Number of instructions issued per FU type, per thread (Count)
system.cpu0.statIssuedInstType_0::SimdMisc         4383      0.01%     58.44% # Number of instructions issued per FU type, per thread (Count)
system.cpu0.statIssuedInstType_0::SimdMult            0      0.00%     58.44% # Number of instructions issued per FU type, per thread (Count)
system.cpu0.statIssuedInstType_0::SimdMultAcc            0      0.00%     58.44% # Number of instructions issued per FU type, per thread (Count)
system.cpu0.statIssuedInstType_0::SimdShift         1837      0.00%     58.44% # Number of instructions issued per FU type, per thread (Count)
system.cpu0.statIssuedInstType_0::SimdShiftAcc            0      0.00%     58.44% # Number of instructions issued per FU type, per thread (Count)
system.cpu0.statIssuedInstType_0::SimdDiv            0      0.00%     58.44% # Number of instructions issued per FU type, per thread (Count)
system.cpu0.statIssuedInstType_0::SimdSqrt            0      0.00%     58.44% # Number of instructions issued per FU type, per thread (Count)
system.cpu0.statIssuedInstType_0::SimdFloatAdd      6573234     14.19%     72.63% # Number of instructions issued per FU type, per thread (Count)
system.cpu0.statIssuedInstType_0::SimdFloatAlu            0      0.00%     72.63% # Number of instructions issued per FU type, per thread (Count)
system.cpu0.statIssuedInstType_0::SimdFloatCmp           24      0.00%     72.63% # Number of instructions issued per FU type, per thread (Count)
system.cpu0.statIssuedInstType_0::SimdFloatCvt      3016126      6.51%     79.14% # Number of instructions issued per FU type, per thread (Count)
system.cpu0.statIssuedInstType_0::SimdFloatDiv           16      0.00%     79.14% # Number of instructions issued per FU type, per thread (Count)
system.cpu0.statIssuedInstType_0::SimdFloatMisc            0      0.00%     79.14% # Number of instructions issued per FU type, per thread (Count)
system.cpu0.statIssuedInstType_0::SimdFloatMult       505408      1.09%     80.23% # Number of instructions issued per FU type, per thread (Count)
system.cpu0.statIssuedInstType_0::SimdFloatMultAcc            0      0.00%     80.23% # Number of instructions issued per FU type, per thread (Count)
system.cpu0.statIssuedInstType_0::SimdFloatSqrt            0      0.00%     80.23% # Number of instructions issued per FU type, per thread (Count)
system.cpu0.statIssuedInstType_0::SimdReduceAdd            0      0.00%     80.23% # Number of instructions issued per FU type, per thread (Count)
system.cpu0.statIssuedInstType_0::SimdReduceAlu            0      0.00%     80.23% # Number of instructions issued per FU type, per thread (Count)
system.cpu0.statIssuedInstType_0::SimdReduceCmp            0      0.00%     80.23% # Number of instructions issued per FU type, per thread (Count)
system.cpu0.statIssuedInstType_0::SimdFloatReduceAdd            0      0.00%     80.23% # Number of instructions issued per FU type, per thread (Count)
system.cpu0.statIssuedInstType_0::SimdFloatReduceCmp            0      0.00%     80.23% # Number of instructions issued per FU type, per thread (Count)
system.cpu0.statIssuedInstType_0::SimdAes            0      0.00%     80.23% # Number of instructions issued per FU type, per thread (Count)
system.cpu0.statIssuedInstType_0::SimdAesMix            0      0.00%     80.23% # Number of instructions issued per FU type, per thread (Count)
system.cpu0.statIssuedInstType_0::SimdSha1Hash            0      0.00%     80.23% # Number of instructions issued per FU type, per thread (Count)
system.cpu0.statIssuedInstType_0::SimdSha1Hash2            0      0.00%     80.23% # Number of instructions issued per FU type, per thread (Count)
system.cpu0.statIssuedInstType_0::SimdSha256Hash            0      0.00%     80.23% # Number of instructions issued per FU type, per thread (Count)
system.cpu0.statIssuedInstType_0::SimdSha256Hash2            0      0.00%     80.23% # Number of instructions issued per FU type, per thread (Count)
system.cpu0.statIssuedInstType_0::SimdShaSigma2            0      0.00%     80.23% # Number of instructions issued per FU type, per thread (Count)
system.cpu0.statIssuedInstType_0::SimdShaSigma3            0      0.00%     80.23% # Number of instructions issued per FU type, per thread (Count)
system.cpu0.statIssuedInstType_0::SimdPredAlu            0      0.00%     80.23% # Number of instructions issued per FU type, per thread (Count)
system.cpu0.statIssuedInstType_0::MemRead       189187      0.41%     80.64% # Number of instructions issued per FU type, per thread (Count)
system.cpu0.statIssuedInstType_0::MemWrite       130249      0.28%     80.92% # Number of instructions issued per FU type, per thread (Count)
system.cpu0.statIssuedInstType_0::FloatMemRead      7644178     16.50%     97.42% # Number of instructions issued per FU type, per thread (Count)
system.cpu0.statIssuedInstType_0::FloatMemWrite      1194657      2.58%    100.00% # Number of instructions issued per FU type, per thread (Count)
system.cpu0.statIssuedInstType_0::IprAccess            0      0.00%    100.00% # Number of instructions issued per FU type, per thread (Count)
system.cpu0.statIssuedInstType_0::InstPrefetch            0      0.00%    100.00% # Number of instructions issued per FU type, per thread (Count)
system.cpu0.statIssuedInstType_0::total      46325468                       # Number of instructions issued per FU type, per thread (Count)
system.cpu0.issueRate                        0.453418                       # Inst issue rate ((Count/Cycle))
system.cpu0.fuBusy                             774286                       # FU busy when requested (Count)
system.cpu0.fuBusyRate                       0.016714                       # FU busy rate (busy events/executed inst) ((Count/Count))
system.cpu0.intInstQueueReads               147336565                       # Number of integer instruction queue reads (Count)
system.cpu0.intInstQueueWrites               23397524                       # Number of integer instruction queue writes (Count)
system.cpu0.intInstQueueWakeupAccesses       22713992                       # Number of integer instruction queue wakeup accesses (Count)
system.cpu0.fpInstQueueReads                 47872942                       # Number of floating instruction queue reads (Count)
system.cpu0.fpInstQueueWrites                23586921                       # Number of floating instruction queue writes (Count)
system.cpu0.fpInstQueueWakeupAccesses        23512488                       # Number of floating instruction queue wakeup accesses (Count)
system.cpu0.vecInstQueueReads                       0                       # Number of vector instruction queue reads (Count)
system.cpu0.vecInstQueueWrites                      0                       # Number of vector instruction queue writes (Count)
system.cpu0.vecInstQueueWakeupAccesses              0                       # Number of vector instruction queue wakeup accesses (Count)
system.cpu0.intAluAccesses                   22778199                       # Number of integer alu accesses (Count)
system.cpu0.fpAluAccesses                    24315030                       # Number of floating point alu accesses (Count)
system.cpu0.vecAluAccesses                          0                       # Number of vector alu accesses (Count)
system.cpu0.numInsts                         46293291                       # Number of executed instructions (Count)
system.cpu0.numLoadInsts                      7827476                       # Number of load instructions executed (Count)
system.cpu0.numSquashedInsts                    32177                       # Number of squashed instructions skipped in execute (Count)
system.cpu0.numSwp                                  0                       # Number of swp insts executed (Count)
system.cpu0.numNop                                  0                       # Number of nop insts executed (Count)
system.cpu0.numRefs                           9151362                       # Number of memory reference insts executed (Count)
system.cpu0.numBranches                       4709807                       # Number of branches executed (Count)
system.cpu0.numStoreInsts                     1323886                       # Number of stores executed (Count)
system.cpu0.numRate                          0.453103                       # Inst execution rate ((Count/Cycle))
system.cpu0.timesIdled                           1897                       # Number of times that the entire CPU went into an idle state and unscheduled itself (Count)
system.cpu0.idleCycles                         387046                       # Total number of cycles that the CPU has spent unscheduled due to idling (Cycle)
system.cpu0.committedInsts                   25077503                       # Number of Instructions Simulated (Count)
system.cpu0.committedOps                     45827075                       # Number of Ops (including micro ops) Simulated (Count)
system.cpu0.cpi                              4.074145                       # CPI: Cycles Per Instruction ((Cycle/Count))
system.cpu0.totalCpi                         4.074145                       # CPI: Total CPI of All Threads ((Cycle/Count))
system.cpu0.ipc                              0.245450                       # IPC: Instructions Per Cycle ((Count/Cycle))
system.cpu0.totalIpc                         0.245450                       # IPC: Total IPC of All Threads ((Count/Cycle))
system.cpu0.intRegfileReads                  34480908                       # Number of integer regfile reads (Count)
system.cpu0.intRegfileWrites                 16204668                       # Number of integer regfile writes (Count)
system.cpu0.fpRegfileReads                   30577481                       # Number of floating regfile reads (Count)
system.cpu0.fpRegfileWrites                  19309170                       # Number of floating regfile writes (Count)
system.cpu0.ccRegfileReads                   29495150                       # number of cc regfile reads (Count)
system.cpu0.ccRegfileWrites                  12626844                       # number of cc regfile writes (Count)
system.cpu0.miscRegfileReads                 19092625                       # number of misc regfile reads (Count)
system.cpu0.miscRegfileWrites                     234                       # number of misc regfile writes (Count)
system.cpu0.MemDepUnit__0.insertedLoads       7797922                       # Number of loads inserted to the mem dependence unit. (Count)
system.cpu0.MemDepUnit__0.insertedStores      1329681                       # Number of stores inserted to the mem dependence unit. (Count)
system.cpu0.MemDepUnit__0.conflictingLoads        67626                       # Number of conflicting loads. (Count)
system.cpu0.MemDepUnit__0.conflictingStores        66288                       # Number of conflicting stores. (Count)
system.cpu0.MemDepUnit__1.insertedLoads             0                       # Number of loads inserted to the mem dependence unit. (Count)
system.cpu0.MemDepUnit__1.insertedStores            0                       # Number of stores inserted to the mem dependence unit. (Count)
system.cpu0.MemDepUnit__1.conflictingLoads            0                       # Number of conflicting loads. (Count)
system.cpu0.MemDepUnit__1.conflictingStores            0                       # Number of conflicting stores. (Count)
system.cpu0.MemDepUnit__2.insertedLoads             0                       # Number of loads inserted to the mem dependence unit. (Count)
system.cpu0.MemDepUnit__2.insertedStores            0                       # Number of stores inserted to the mem dependence unit. (Count)
system.cpu0.MemDepUnit__2.conflictingLoads            0                       # Number of conflicting loads. (Count)
system.cpu0.MemDepUnit__2.conflictingStores            0                       # Number of conflicting stores. (Count)
system.cpu0.MemDepUnit__3.insertedLoads             0                       # Number of loads inserted to the mem dependence unit. (Count)
system.cpu0.MemDepUnit__3.insertedStores            0                       # Number of stores inserted to the mem dependence unit. (Count)
system.cpu0.MemDepUnit__3.conflictingLoads            0                       # Number of conflicting loads. (Count)
system.cpu0.MemDepUnit__3.conflictingStores            0                       # Number of conflicting stores. (Count)
system.cpu0.branchPred.lookups                4765156                       # Number of BP lookups (Count)
system.cpu0.branchPred.condPredicted          4709530                       # Number of conditional branches predicted (Count)
system.cpu0.branchPred.condIncorrect             9098                       # Number of conditional branches incorrect (Count)
system.cpu0.branchPred.BTBLookups             1626544                       # Number of BTB lookups (Count)
system.cpu0.branchPred.BTBHits                1622866                       # Number of BTB hits (Count)
system.cpu0.branchPred.BTBHitRatio           0.997739                       # BTB Hit Ratio (Ratio)
system.cpu0.branchPred.RASUsed                  19569                       # Number of times the RAS was used to get a target. (Count)
system.cpu0.branchPred.RASIncorrect                 5                       # Number of incorrect RAS predictions. (Count)
system.cpu0.branchPred.indirectLookups          11034                       # Number of indirect predictor lookups. (Count)
system.cpu0.branchPred.indirectHits              6705                       # Number of indirect target hits. (Count)
system.cpu0.branchPred.indirectMisses            4329                       # Number of indirect misses. (Count)
system.cpu0.branchPred.indirectMispredicted          892                       # Number of mispredicted indirect branches. (Count)
system.cpu0.commit.commitSquashedInsts         465772                       # The number of squashed insts skipped by commit (Count)
system.cpu0.commit.commitNonSpecStalls           1116                       # The number of times commit has been forced to stall to communicate backwards (Count)
system.cpu0.commit.branchMispredicts             9311                       # The number of times a branch was mispredicted (Count)
system.cpu0.commit.numCommittedDist::samples    101714696                       # Number of insts commited each cycle (Count)
system.cpu0.commit.numCommittedDist::mean     0.450545                       # Number of insts commited each cycle (Count)
system.cpu0.commit.numCommittedDist::stdev     1.718970                       # Number of insts commited each cycle (Count)
system.cpu0.commit.numCommittedDist::underflows            0      0.00%      0.00% # Number of insts commited each cycle (Count)
system.cpu0.commit.numCommittedDist::0       93246136     91.67%     91.67% # Number of insts commited each cycle (Count)
system.cpu0.commit.numCommittedDist::1        1501472      1.48%     93.15% # Number of insts commited each cycle (Count)
system.cpu0.commit.numCommittedDist::2         697456      0.69%     93.84% # Number of insts commited each cycle (Count)
system.cpu0.commit.numCommittedDist::3         771477      0.76%     94.59% # Number of insts commited each cycle (Count)
system.cpu0.commit.numCommittedDist::4         546999      0.54%     95.13% # Number of insts commited each cycle (Count)
system.cpu0.commit.numCommittedDist::5         298246      0.29%     95.43% # Number of insts commited each cycle (Count)
system.cpu0.commit.numCommittedDist::6         132254      0.13%     95.56% # Number of insts commited each cycle (Count)
system.cpu0.commit.numCommittedDist::7          21738      0.02%     95.58% # Number of insts commited each cycle (Count)
system.cpu0.commit.numCommittedDist::8        4498918      4.42%    100.00% # Number of insts commited each cycle (Count)
system.cpu0.commit.numCommittedDist::overflows            0      0.00%    100.00% # Number of insts commited each cycle (Count)
system.cpu0.commit.numCommittedDist::min_value            0                       # Number of insts commited each cycle (Count)
system.cpu0.commit.numCommittedDist::max_value            8                       # Number of insts commited each cycle (Count)
system.cpu0.commit.numCommittedDist::total    101714696                       # Number of insts commited each cycle (Count)
system.cpu0.commit.instsCommitted            25077503                       # Number of instructions committed (Count)
system.cpu0.commit.opsCommitted              45827075                       # Number of ops (including micro ops) committed (Count)
system.cpu0.commit.memRefs                    9021274                       # Number of memory references committed (Count)
system.cpu0.commit.loads                      7714428                       # Number of loads committed (Count)
system.cpu0.commit.amos                             0                       # Number of atomic instructions committed (Count)
system.cpu0.commit.membars                        588                       # Number of memory barriers committed (Count)
system.cpu0.commit.branches                   4672683                       # Number of branches committed (Count)
system.cpu0.commit.vectorInstructions               0                       # Number of committed Vector instructions. (Count)
system.cpu0.commit.floating                  23455245                       # Number of committed floating point instructions. (Count)
system.cpu0.commit.integer                   31124187                       # Number of committed integer instructions. (Count)
system.cpu0.commit.functionCalls                 9237                       # Number of function calls committed. (Count)
system.cpu0.commit.committedInstType_0::No_OpClass         2168      0.00%      0.00% # Class of committed instruction (Count)
system.cpu0.commit.committedInstType_0::IntAlu     23129767     50.47%     50.48% # Class of committed instruction (Count)
system.cpu0.commit.committedInstType_0::IntMult          236      0.00%     50.48% # Class of committed instruction (Count)
system.cpu0.commit.committedInstType_0::IntDiv         2634      0.01%     50.48% # Class of committed instruction (Count)
system.cpu0.commit.committedInstType_0::FloatAdd      3565867      7.78%     58.26% # Class of committed instruction (Count)
system.cpu0.commit.committedInstType_0::FloatCmp            0      0.00%     58.26% # Class of committed instruction (Count)
system.cpu0.commit.committedInstType_0::FloatCvt          416      0.00%     58.26% # Class of committed instruction (Count)
system.cpu0.commit.committedInstType_0::FloatMult            0      0.00%     58.26% # Class of committed instruction (Count)
system.cpu0.commit.committedInstType_0::FloatMultAcc            0      0.00%     58.26% # Class of committed instruction (Count)
system.cpu0.commit.committedInstType_0::FloatDiv            0      0.00%     58.26% # Class of committed instruction (Count)
system.cpu0.commit.committedInstType_0::FloatMisc            0      0.00%     58.26% # Class of committed instruction (Count)
system.cpu0.commit.committedInstType_0::FloatSqrt            0      0.00%     58.26% # Class of committed instruction (Count)
system.cpu0.commit.committedInstType_0::SimdAdd         2080      0.00%     58.27% # Class of committed instruction (Count)
system.cpu0.commit.committedInstType_0::SimdAddAcc            0      0.00%     58.27% # Class of committed instruction (Count)
system.cpu0.commit.committedInstType_0::SimdAlu        14469      0.03%     58.30% # Class of committed instruction (Count)
system.cpu0.commit.committedInstType_0::SimdCmp           72      0.00%     58.30% # Class of committed instruction (Count)
system.cpu0.commit.committedInstType_0::SimdCvt         4652      0.01%     58.31% # Class of committed instruction (Count)
system.cpu0.commit.committedInstType_0::SimdMisc         3761      0.01%     58.32% # Class of committed instruction (Count)
system.cpu0.commit.committedInstType_0::SimdMult            0      0.00%     58.32% # Class of committed instruction (Count)
system.cpu0.commit.committedInstType_0::SimdMultAcc            0      0.00%     58.32% # Class of committed instruction (Count)
system.cpu0.commit.committedInstType_0::SimdShift          932      0.00%     58.32% # Class of committed instruction (Count)
system.cpu0.commit.committedInstType_0::SimdShiftAcc            0      0.00%     58.32% # Class of committed instruction (Count)
system.cpu0.commit.committedInstType_0::SimdDiv            0      0.00%     58.32% # Class of committed instruction (Count)
system.cpu0.commit.committedInstType_0::SimdSqrt            0      0.00%     58.32% # Class of committed instruction (Count)
system.cpu0.commit.committedInstType_0::SimdFloatAdd      6567888     14.33%     72.65% # Class of committed instruction (Count)
system.cpu0.commit.committedInstType_0::SimdFloatAlu            0      0.00%     72.65% # Class of committed instruction (Count)
system.cpu0.commit.committedInstType_0::SimdFloatCmp           24      0.00%     72.65% # Class of committed instruction (Count)
system.cpu0.commit.committedInstType_0::SimdFloatCvt      3008095      6.56%     79.22% # Class of committed instruction (Count)
system.cpu0.commit.committedInstType_0::SimdFloatDiv           15      0.00%     79.22% # Class of committed instruction (Count)
system.cpu0.commit.committedInstType_0::SimdFloatMisc            0      0.00%     79.22% # Class of committed instruction (Count)
system.cpu0.commit.committedInstType_0::SimdFloatMult       502725      1.10%     80.31% # Class of committed instruction (Count)
system.cpu0.commit.committedInstType_0::SimdFloatMultAcc            0      0.00%     80.31% # Class of committed instruction (Count)
system.cpu0.commit.committedInstType_0::SimdFloatSqrt            0      0.00%     80.31% # Class of committed instruction (Count)
system.cpu0.commit.committedInstType_0::SimdReduceAdd            0      0.00%     80.31% # Class of committed instruction (Count)
system.cpu0.commit.committedInstType_0::SimdReduceAlu            0      0.00%     80.31% # Class of committed instruction (Count)
system.cpu0.commit.committedInstType_0::SimdReduceCmp            0      0.00%     80.31% # Class of committed instruction (Count)
system.cpu0.commit.committedInstType_0::SimdFloatReduceAdd            0      0.00%     80.31% # Class of committed instruction (Count)
system.cpu0.commit.committedInstType_0::SimdFloatReduceCmp            0      0.00%     80.31% # Class of committed instruction (Count)
system.cpu0.commit.committedInstType_0::SimdAes            0      0.00%     80.31% # Class of committed instruction (Count)
system.cpu0.commit.committedInstType_0::SimdAesMix            0      0.00%     80.31% # Class of committed instruction (Count)
system.cpu0.commit.committedInstType_0::SimdSha1Hash            0      0.00%     80.31% # Class of committed instruction (Count)
system.cpu0.commit.committedInstType_0::SimdSha1Hash2            0      0.00%     80.31% # Class of committed instruction (Count)
system.cpu0.commit.committedInstType_0::SimdSha256Hash            0      0.00%     80.31% # Class of committed instruction (Count)
system.cpu0.commit.committedInstType_0::SimdSha256Hash2            0      0.00%     80.31% # Class of committed instruction (Count)
system.cpu0.commit.committedInstType_0::SimdShaSigma2            0      0.00%     80.31% # Class of committed instruction (Count)
system.cpu0.commit.committedInstType_0::SimdShaSigma3            0      0.00%     80.31% # Class of committed instruction (Count)
system.cpu0.commit.committedInstType_0::SimdPredAlu            0      0.00%     80.31% # Class of committed instruction (Count)
system.cpu0.commit.committedInstType_0::MemRead       130548      0.28%     80.60% # Class of committed instruction (Count)
system.cpu0.commit.committedInstType_0::MemWrite       112902      0.25%     80.85% # Class of committed instruction (Count)
system.cpu0.commit.committedInstType_0::FloatMemRead      7583880     16.55%     97.39% # Class of committed instruction (Count)
system.cpu0.commit.committedInstType_0::FloatMemWrite      1193944      2.61%    100.00% # Class of committed instruction (Count)
system.cpu0.commit.committedInstType_0::IprAccess            0      0.00%    100.00% # Class of committed instruction (Count)
system.cpu0.commit.committedInstType_0::InstPrefetch            0      0.00%    100.00% # Class of committed instruction (Count)
system.cpu0.commit.committedInstType_0::total     45827075                       # Class of committed instruction (Count)
system.cpu0.commit.commitEligibleSamples      4498918                       # number cycles where commit BW limit reached (Cycle)
system.cpu0.dcache.demandHits::cpu00.data      5714042                       # number of demand (read+write) hits (Count)
system.cpu0.dcache.demandHits::total          5714042                       # number of demand (read+write) hits (Count)
system.cpu0.dcache.overallHits::cpu00.data      5714042                       # number of overall hits (Count)
system.cpu0.dcache.overallHits::total         5714042                       # number of overall hits (Count)
system.cpu0.dcache.demandMisses::cpu00.data      3361192                       # number of demand (read+write) misses (Count)
system.cpu0.dcache.demandMisses::total        3361192                       # number of demand (read+write) misses (Count)
system.cpu0.dcache.overallMisses::cpu00.data      3361192                       # number of overall misses (Count)
system.cpu0.dcache.overallMisses::total       3361192                       # number of overall misses (Count)
system.cpu0.dcache.demandMissLatency::cpu00.data 183437574996                       # number of demand (read+write) miss ticks (Tick)
system.cpu0.dcache.demandMissLatency::total 183437574996                       # number of demand (read+write) miss ticks (Tick)
system.cpu0.dcache.overallMissLatency::cpu00.data 183437574996                       # number of overall miss ticks (Tick)
system.cpu0.dcache.overallMissLatency::total 183437574996                       # number of overall miss ticks (Tick)
system.cpu0.dcache.demandAccesses::cpu00.data      9075234                       # number of demand (read+write) accesses (Count)
system.cpu0.dcache.demandAccesses::total      9075234                       # number of demand (read+write) accesses (Count)
system.cpu0.dcache.overallAccesses::cpu00.data      9075234                       # number of overall (read+write) accesses (Count)
system.cpu0.dcache.overallAccesses::total      9075234                       # number of overall (read+write) accesses (Count)
system.cpu0.dcache.demandMissRate::cpu00.data     0.370370                       # miss rate for demand accesses (Ratio)
system.cpu0.dcache.demandMissRate::total     0.370370                       # miss rate for demand accesses (Ratio)
system.cpu0.dcache.overallMissRate::cpu00.data     0.370370                       # miss rate for overall accesses (Ratio)
system.cpu0.dcache.overallMissRate::total     0.370370                       # miss rate for overall accesses (Ratio)
system.cpu0.dcache.demandAvgMissLatency::cpu00.data 54575.155182                       # average overall miss latency in ticks ((Tick/Count))
system.cpu0.dcache.demandAvgMissLatency::total 54575.155182                       # average overall miss latency in ticks ((Tick/Count))
system.cpu0.dcache.overallAvgMissLatency::cpu00.data 54575.155182                       # average overall miss latency ((Tick/Count))
system.cpu0.dcache.overallAvgMissLatency::total 54575.155182                       # average overall miss latency ((Tick/Count))
system.cpu0.dcache.blockedCycles::no_mshrs      5202942                       # number of cycles access was blocked (Cycle)
system.cpu0.dcache.blockedCycles::no_targets         5706                       # number of cycles access was blocked (Cycle)
system.cpu0.dcache.blockedCauses::no_mshrs        84042                       # number of times access was blocked (Count)
system.cpu0.dcache.blockedCauses::no_targets           30                       # number of times access was blocked (Count)
system.cpu0.dcache.avgBlocked::no_mshrs     61.908831                       # average number of cycles each access was blocked ((Cycle/Count))
system.cpu0.dcache.avgBlocked::no_targets   190.200000                       # average number of cycles each access was blocked ((Cycle/Count))
system.cpu0.dcache.writebacks::writebacks       159412                       # number of writebacks (Count)
system.cpu0.dcache.writebacks::total           159412                       # number of writebacks (Count)
system.cpu0.dcache.demandMshrHits::cpu00.data      2634901                       # number of demand (read+write) MSHR hits (Count)
system.cpu0.dcache.demandMshrHits::total      2634901                       # number of demand (read+write) MSHR hits (Count)
system.cpu0.dcache.overallMshrHits::cpu00.data      2634901                       # number of overall MSHR hits (Count)
system.cpu0.dcache.overallMshrHits::total      2634901                       # number of overall MSHR hits (Count)
system.cpu0.dcache.demandMshrMisses::cpu00.data       726291                       # number of demand (read+write) MSHR misses (Count)
system.cpu0.dcache.demandMshrMisses::total       726291                       # number of demand (read+write) MSHR misses (Count)
system.cpu0.dcache.overallMshrMisses::cpu00.data       726291                       # number of overall MSHR misses (Count)
system.cpu0.dcache.overallMshrMisses::total       726291                       # number of overall MSHR misses (Count)
system.cpu0.dcache.demandMshrMissLatency::cpu00.data  57038281496                       # number of demand (read+write) MSHR miss ticks (Tick)
system.cpu0.dcache.demandMshrMissLatency::total  57038281496                       # number of demand (read+write) MSHR miss ticks (Tick)
system.cpu0.dcache.overallMshrMissLatency::cpu00.data  57038281496                       # number of overall MSHR miss ticks (Tick)
system.cpu0.dcache.overallMshrMissLatency::total  57038281496                       # number of overall MSHR miss ticks (Tick)
system.cpu0.dcache.demandMshrMissRate::cpu00.data     0.080030                       # mshr miss ratio for demand accesses (Ratio)
system.cpu0.dcache.demandMshrMissRate::total     0.080030                       # mshr miss ratio for demand accesses (Ratio)
system.cpu0.dcache.overallMshrMissRate::cpu00.data     0.080030                       # mshr miss ratio for overall accesses (Ratio)
system.cpu0.dcache.overallMshrMissRate::total     0.080030                       # mshr miss ratio for overall accesses (Ratio)
system.cpu0.dcache.demandAvgMshrMissLatency::cpu00.data 78533.647665                       # average overall mshr miss latency ((Tick/Count))
system.cpu0.dcache.demandAvgMshrMissLatency::total 78533.647665                       # average overall mshr miss latency ((Tick/Count))
system.cpu0.dcache.overallAvgMshrMissLatency::cpu00.data 78533.647665                       # average overall mshr miss latency ((Tick/Count))
system.cpu0.dcache.overallAvgMshrMissLatency::total 78533.647665                       # average overall mshr miss latency ((Tick/Count))
system.cpu0.dcache.replacements                724883                       # number of replacements (Count)
system.cpu0.dcache.LockedRMWReadReq.hits::cpu00.data          251                       # number of LockedRMWReadReq hits (Count)
system.cpu0.dcache.LockedRMWReadReq.hits::total          251                       # number of LockedRMWReadReq hits (Count)
system.cpu0.dcache.LockedRMWReadReq.misses::cpu00.data           43                       # number of LockedRMWReadReq misses (Count)
system.cpu0.dcache.LockedRMWReadReq.misses::total           43                       # number of LockedRMWReadReq misses (Count)
system.cpu0.dcache.LockedRMWReadReq.missLatency::cpu00.data      1080750                       # number of LockedRMWReadReq miss ticks (Tick)
system.cpu0.dcache.LockedRMWReadReq.missLatency::total      1080750                       # number of LockedRMWReadReq miss ticks (Tick)
system.cpu0.dcache.LockedRMWReadReq.accesses::cpu00.data          294                       # number of LockedRMWReadReq accesses(hits+misses) (Count)
system.cpu0.dcache.LockedRMWReadReq.accesses::total          294                       # number of LockedRMWReadReq accesses(hits+misses) (Count)
system.cpu0.dcache.LockedRMWReadReq.missRate::cpu00.data     0.146259                       # miss rate for LockedRMWReadReq accesses (Ratio)
system.cpu0.dcache.LockedRMWReadReq.missRate::total     0.146259                       # miss rate for LockedRMWReadReq accesses (Ratio)
system.cpu0.dcache.LockedRMWReadReq.avgMissLatency::cpu00.data 25133.720930                       # average LockedRMWReadReq miss latency ((Tick/Count))
system.cpu0.dcache.LockedRMWReadReq.avgMissLatency::total 25133.720930                       # average LockedRMWReadReq miss latency ((Tick/Count))
system.cpu0.dcache.LockedRMWReadReq.mshrMisses::cpu00.data           43                       # number of LockedRMWReadReq MSHR misses (Count)
system.cpu0.dcache.LockedRMWReadReq.mshrMisses::total           43                       # number of LockedRMWReadReq MSHR misses (Count)
system.cpu0.dcache.LockedRMWReadReq.mshrMissLatency::cpu00.data      2761000                       # number of LockedRMWReadReq MSHR miss ticks (Tick)
system.cpu0.dcache.LockedRMWReadReq.mshrMissLatency::total      2761000                       # number of LockedRMWReadReq MSHR miss ticks (Tick)
system.cpu0.dcache.LockedRMWReadReq.mshrMissRate::cpu00.data     0.146259                       # mshr miss rate for LockedRMWReadReq accesses (Ratio)
system.cpu0.dcache.LockedRMWReadReq.mshrMissRate::total     0.146259                       # mshr miss rate for LockedRMWReadReq accesses (Ratio)
system.cpu0.dcache.LockedRMWReadReq.avgMshrMissLatency::cpu00.data 64209.302326                       # average LockedRMWReadReq mshr miss latency ((Tick/Count))
system.cpu0.dcache.LockedRMWReadReq.avgMshrMissLatency::total 64209.302326                       # average LockedRMWReadReq mshr miss latency ((Tick/Count))
system.cpu0.dcache.LockedRMWWriteReq.hits::cpu00.data          294                       # number of LockedRMWWriteReq hits (Count)
system.cpu0.dcache.LockedRMWWriteReq.hits::total          294                       # number of LockedRMWWriteReq hits (Count)
system.cpu0.dcache.LockedRMWWriteReq.accesses::cpu00.data          294                       # number of LockedRMWWriteReq accesses(hits+misses) (Count)
system.cpu0.dcache.LockedRMWWriteReq.accesses::total          294                       # number of LockedRMWWriteReq accesses(hits+misses) (Count)
system.cpu0.dcache.ReadReq.hits::cpu00.data      4558985                       # number of ReadReq hits (Count)
system.cpu0.dcache.ReadReq.hits::total        4558985                       # number of ReadReq hits (Count)
system.cpu0.dcache.ReadReq.misses::cpu00.data      3209677                       # number of ReadReq misses (Count)
system.cpu0.dcache.ReadReq.misses::total      3209677                       # number of ReadReq misses (Count)
system.cpu0.dcache.ReadReq.missLatency::cpu00.data 172375865750                       # number of ReadReq miss ticks (Tick)
system.cpu0.dcache.ReadReq.missLatency::total 172375865750                       # number of ReadReq miss ticks (Tick)
system.cpu0.dcache.ReadReq.accesses::cpu00.data      7768662                       # number of ReadReq accesses(hits+misses) (Count)
system.cpu0.dcache.ReadReq.accesses::total      7768662                       # number of ReadReq accesses(hits+misses) (Count)
system.cpu0.dcache.ReadReq.missRate::cpu00.data     0.413157                       # miss rate for ReadReq accesses (Ratio)
system.cpu0.dcache.ReadReq.missRate::total     0.413157                       # miss rate for ReadReq accesses (Ratio)
system.cpu0.dcache.ReadReq.avgMissLatency::cpu00.data 53705.050617                       # average ReadReq miss latency ((Tick/Count))
system.cpu0.dcache.ReadReq.avgMissLatency::total 53705.050617                       # average ReadReq miss latency ((Tick/Count))
system.cpu0.dcache.ReadReq.mshrHits::cpu00.data      2634891                       # number of ReadReq MSHR hits (Count)
system.cpu0.dcache.ReadReq.mshrHits::total      2634891                       # number of ReadReq MSHR hits (Count)
system.cpu0.dcache.ReadReq.mshrMisses::cpu00.data       574786                       # number of ReadReq MSHR misses (Count)
system.cpu0.dcache.ReadReq.mshrMisses::total       574786                       # number of ReadReq MSHR misses (Count)
system.cpu0.dcache.ReadReq.mshrMissLatency::cpu00.data  46052849000                       # number of ReadReq MSHR miss ticks (Tick)
system.cpu0.dcache.ReadReq.mshrMissLatency::total  46052849000                       # number of ReadReq MSHR miss ticks (Tick)
system.cpu0.dcache.ReadReq.mshrMissRate::cpu00.data     0.073988                       # mshr miss rate for ReadReq accesses (Ratio)
system.cpu0.dcache.ReadReq.mshrMissRate::total     0.073988                       # mshr miss rate for ReadReq accesses (Ratio)
system.cpu0.dcache.ReadReq.avgMshrMissLatency::cpu00.data 80121.730522                       # average ReadReq mshr miss latency ((Tick/Count))
system.cpu0.dcache.ReadReq.avgMshrMissLatency::total 80121.730522                       # average ReadReq mshr miss latency ((Tick/Count))
system.cpu0.dcache.WriteReq.hits::cpu00.data      1155057                       # number of WriteReq hits (Count)
system.cpu0.dcache.WriteReq.hits::total       1155057                       # number of WriteReq hits (Count)
system.cpu0.dcache.WriteReq.misses::cpu00.data       151515                       # number of WriteReq misses (Count)
system.cpu0.dcache.WriteReq.misses::total       151515                       # number of WriteReq misses (Count)
system.cpu0.dcache.WriteReq.missLatency::cpu00.data  11061709246                       # number of WriteReq miss ticks (Tick)
system.cpu0.dcache.WriteReq.missLatency::total  11061709246                       # number of WriteReq miss ticks (Tick)
system.cpu0.dcache.WriteReq.accesses::cpu00.data      1306572                       # number of WriteReq accesses(hits+misses) (Count)
system.cpu0.dcache.WriteReq.accesses::total      1306572                       # number of WriteReq accesses(hits+misses) (Count)
system.cpu0.dcache.WriteReq.missRate::cpu00.data     0.115964                       # miss rate for WriteReq accesses (Ratio)
system.cpu0.dcache.WriteReq.missRate::total     0.115964                       # miss rate for WriteReq accesses (Ratio)
system.cpu0.dcache.WriteReq.avgMissLatency::cpu00.data 73007.354031                       # average WriteReq miss latency ((Tick/Count))
system.cpu0.dcache.WriteReq.avgMissLatency::total 73007.354031                       # average WriteReq miss latency ((Tick/Count))
system.cpu0.dcache.WriteReq.mshrHits::cpu00.data           10                       # number of WriteReq MSHR hits (Count)
system.cpu0.dcache.WriteReq.mshrHits::total           10                       # number of WriteReq MSHR hits (Count)
system.cpu0.dcache.WriteReq.mshrMisses::cpu00.data       151505                       # number of WriteReq MSHR misses (Count)
system.cpu0.dcache.WriteReq.mshrMisses::total       151505                       # number of WriteReq MSHR misses (Count)
system.cpu0.dcache.WriteReq.mshrMissLatency::cpu00.data  10985432496                       # number of WriteReq MSHR miss ticks (Tick)
system.cpu0.dcache.WriteReq.mshrMissLatency::total  10985432496                       # number of WriteReq MSHR miss ticks (Tick)
system.cpu0.dcache.WriteReq.mshrMissRate::cpu00.data     0.115956                       # mshr miss rate for WriteReq accesses (Ratio)
system.cpu0.dcache.WriteReq.mshrMissRate::total     0.115956                       # mshr miss rate for WriteReq accesses (Ratio)
system.cpu0.dcache.WriteReq.avgMshrMissLatency::cpu00.data 72508.712557                       # average WriteReq mshr miss latency ((Tick/Count))
system.cpu0.dcache.WriteReq.avgMshrMissLatency::total 72508.712557                       # average WriteReq mshr miss latency ((Tick/Count))
system.cpu0.dcache.power_state.pwrStateResidencyTicks::UNDEFINED  25542344500                       # Cumulative time (in ticks) in various power states (Tick)
system.cpu0.dcache.tags.tagsInUse         1021.620718                       # Average ticks per tags in use ((Tick/Count))
system.cpu0.dcache.tags.totalRefs             6440923                       # Total number of references to valid blocks. (Count)
system.cpu0.dcache.tags.sampledRefs            726226                       # Sample count of references to valid blocks. (Count)
system.cpu0.dcache.tags.avgRefs              8.869034                       # Average number of references to valid blocks. ((Count/Count))
system.cpu0.dcache.tags.warmupTick             149000                       # The tick when the warmup percentage was hit. (Tick)
system.cpu0.dcache.tags.occupancies::cpu00.data  1021.620718                       # Average occupied blocks per tick, per requestor ((Count/Tick))
system.cpu0.dcache.tags.avgOccs::cpu00.data     0.997676                       # Average percentage of cache occupancy ((Ratio/Tick))
system.cpu0.dcache.tags.avgOccs::total       0.997676                       # Average percentage of cache occupancy ((Ratio/Tick))
system.cpu0.dcache.tags.occupanciesTaskId::1024         1024                       # Occupied blocks per task id (Count)
system.cpu0.dcache.tags.ageTaskId_1024::0          142                       # Occupied blocks per task id, per block age (Count)
system.cpu0.dcache.tags.ageTaskId_1024::1          881                       # Occupied blocks per task id, per block age (Count)
system.cpu0.dcache.tags.ageTaskId_1024::4            1                       # Occupied blocks per task id, per block age (Count)
system.cpu0.dcache.tags.ratioOccsTaskId::1024            1                       # Ratio of occupied blocks and all blocks, per task id (Ratio)
system.cpu0.dcache.tags.tagAccesses          18877870                       # Number of tag accesses (Count)
system.cpu0.dcache.tags.dataAccesses         18877870                       # Number of data accesses (Count)
system.cpu0.dcache.tags.power_state.pwrStateResidencyTicks::UNDEFINED  25542344500                       # Cumulative time (in ticks) in various power states (Tick)
system.cpu0.decode.idleCycles                 3087796                       # Number of cycles decode is idle (Cycle)
system.cpu0.decode.blockedCycles             92412242                       # Number of cycles decode is blocked (Cycle)
system.cpu0.decode.runCycles                  3994609                       # Number of cycles decode is running (Cycle)
system.cpu0.decode.unblockCycles              2275063                       # Number of cycles decode is unblocking (Cycle)
system.cpu0.decode.squashCycles                 12623                       # Number of cycles decode is squashing (Cycle)
system.cpu0.decode.branchResolved             1619277                       # Number of times decode resolved a branch (Count)
system.cpu0.decode.branchMispred                 1363                       # Number of times decode detected a branch misprediction (Count)
system.cpu0.decode.decodedInsts              46500940                       # Number of instructions handled by decode (Count)
system.cpu0.decode.squashedInsts                 6568                       # Number of squashed instructions handled by decode (Count)
system.cpu0.dtb_walker_cache.blockedCycles::no_mshrs            0                       # number of cycles access was blocked (Cycle)
system.cpu0.dtb_walker_cache.blockedCycles::no_targets            0                       # number of cycles access was blocked (Cycle)
system.cpu0.dtb_walker_cache.blockedCauses::no_mshrs            0                       # number of times access was blocked (Count)
system.cpu0.dtb_walker_cache.blockedCauses::no_targets            0                       # number of times access was blocked (Count)
system.cpu0.dtb_walker_cache.avgBlocked::no_mshrs          nan                       # average number of cycles each access was blocked ((Cycle/Count))
system.cpu0.dtb_walker_cache.avgBlocked::no_targets          nan                       # average number of cycles each access was blocked ((Cycle/Count))
system.cpu0.dtb_walker_cache.replacements            0                       # number of replacements (Count)
system.cpu0.dtb_walker_cache.power_state.pwrStateResidencyTicks::UNDEFINED  25542344500                       # Cumulative time (in ticks) in various power states (Tick)
system.cpu0.dtb_walker_cache.tags.tagsInUse            0                       # Average ticks per tags in use ((Tick/Count))
system.cpu0.dtb_walker_cache.tags.totalRefs            0                       # Total number of references to valid blocks. (Count)
system.cpu0.dtb_walker_cache.tags.sampledRefs            0                       # Sample count of references to valid blocks. (Count)
system.cpu0.dtb_walker_cache.tags.avgRefs          nan                       # Average number of references to valid blocks. ((Count/Count))
system.cpu0.dtb_walker_cache.tags.warmupTick            0                       # The tick when the warmup percentage was hit. (Tick)
system.cpu0.dtb_walker_cache.tags.tagAccesses            0                       # Number of tag accesses (Count)
system.cpu0.dtb_walker_cache.tags.dataAccesses            0                       # Number of data accesses (Count)
system.cpu0.dtb_walker_cache.tags.power_state.pwrStateResidencyTicks::UNDEFINED  25542344500                       # Cumulative time (in ticks) in various power states (Tick)
system.cpu0.fetch.icacheStallCycles           3945980                       # Number of cycles fetch is stalled on an Icache miss (Cycle)
system.cpu0.fetch.insts                      25467774                       # Number of instructions fetch has processed (Count)
system.cpu0.fetch.branches                    4765156                       # Number of branches that fetch encountered (Count)
system.cpu0.fetch.predictedBranches           1649140                       # Number of branches that fetch has predicted taken (Count)
system.cpu0.fetch.cycles                     97809560                       # Number of cycles fetch has run and was not squashing or blocked (Cycle)
system.cpu0.fetch.squashCycles                  27930                       # Number of cycles fetch has spent squashing (Cycle)
system.cpu0.fetch.miscStallCycles                1680                       # Number of cycles fetch has spent waiting on interrupts, or bad addresses, or out of MSHRs (Cycle)
system.cpu0.fetch.pendingTrapStallCycles        11064                       # Number of stall cycles due to pending traps (Cycle)
system.cpu0.fetch.icacheWaitRetryStallCycles           84                       # Number of stall cycles due to full MSHR (Cycle)
system.cpu0.fetch.cacheLines                  3829002                       # Number of cache lines fetched (Count)
system.cpu0.fetch.icacheSquashes                 3390                       # Number of outstanding Icache misses that were squashed (Count)
system.cpu0.fetch.nisnDist::samples         101782333                       # Number of instructions fetched each cycle (Total) (Count)
system.cpu0.fetch.nisnDist::mean             0.457867                       # Number of instructions fetched each cycle (Total) (Count)
system.cpu0.fetch.nisnDist::stdev            1.763574                       # Number of instructions fetched each cycle (Total) (Count)
system.cpu0.fetch.nisnDist::underflows              0      0.00%      0.00% # Number of instructions fetched each cycle (Total) (Count)
system.cpu0.fetch.nisnDist::0                94262195     92.61%     92.61% # Number of instructions fetched each cycle (Total) (Count)
system.cpu0.fetch.nisnDist::1                  646898      0.64%     93.25% # Number of instructions fetched each cycle (Total) (Count)
system.cpu0.fetch.nisnDist::2                  163068      0.16%     93.41% # Number of instructions fetched each cycle (Total) (Count)
system.cpu0.fetch.nisnDist::3                 1252826      1.23%     94.64% # Number of instructions fetched each cycle (Total) (Count)
system.cpu0.fetch.nisnDist::4                  111214      0.11%     94.75% # Number of instructions fetched each cycle (Total) (Count)
system.cpu0.fetch.nisnDist::5                  222622      0.22%     94.97% # Number of instructions fetched each cycle (Total) (Count)
system.cpu0.fetch.nisnDist::6                   99307      0.10%     95.06% # Number of instructions fetched each cycle (Total) (Count)
system.cpu0.fetch.nisnDist::7                  476196      0.47%     95.53% # Number of instructions fetched each cycle (Total) (Count)
system.cpu0.fetch.nisnDist::8                 4548007      4.47%    100.00% # Number of instructions fetched each cycle (Total) (Count)
system.cpu0.fetch.nisnDist::overflows               0      0.00%    100.00% # Number of instructions fetched each cycle (Total) (Count)
system.cpu0.fetch.nisnDist::min_value               0                       # Number of instructions fetched each cycle (Total) (Count)
system.cpu0.fetch.nisnDist::max_value               8                       # Number of instructions fetched each cycle (Total) (Count)
system.cpu0.fetch.nisnDist::total           101782333                       # Number of instructions fetched each cycle (Total) (Count)
system.cpu0.fetch.branchRate                 0.046640                       # Number of branch fetches per cycle (Ratio)
system.cpu0.fetch.rate                       0.249270                       # Number of inst fetches per cycle ((Count/Cycle))
system.cpu0.icache.demandHits::cpu00.inst      3825545                       # number of demand (read+write) hits (Count)
system.cpu0.icache.demandHits::total          3825545                       # number of demand (read+write) hits (Count)
system.cpu0.icache.overallHits::cpu00.inst      3825545                       # number of overall hits (Count)
system.cpu0.icache.overallHits::total         3825545                       # number of overall hits (Count)
system.cpu0.icache.demandMisses::cpu00.inst         3456                       # number of demand (read+write) misses (Count)
system.cpu0.icache.demandMisses::total           3456                       # number of demand (read+write) misses (Count)
system.cpu0.icache.overallMisses::cpu00.inst         3456                       # number of overall misses (Count)
system.cpu0.icache.overallMisses::total          3456                       # number of overall misses (Count)
system.cpu0.icache.demandMissLatency::cpu00.inst    214383998                       # number of demand (read+write) miss ticks (Tick)
system.cpu0.icache.demandMissLatency::total    214383998                       # number of demand (read+write) miss ticks (Tick)
system.cpu0.icache.overallMissLatency::cpu00.inst    214383998                       # number of overall miss ticks (Tick)
system.cpu0.icache.overallMissLatency::total    214383998                       # number of overall miss ticks (Tick)
system.cpu0.icache.demandAccesses::cpu00.inst      3829001                       # number of demand (read+write) accesses (Count)
system.cpu0.icache.demandAccesses::total      3829001                       # number of demand (read+write) accesses (Count)
system.cpu0.icache.overallAccesses::cpu00.inst      3829001                       # number of overall (read+write) accesses (Count)
system.cpu0.icache.overallAccesses::total      3829001                       # number of overall (read+write) accesses (Count)
system.cpu0.icache.demandMissRate::cpu00.inst     0.000903                       # miss rate for demand accesses (Ratio)
system.cpu0.icache.demandMissRate::total     0.000903                       # miss rate for demand accesses (Ratio)
system.cpu0.icache.overallMissRate::cpu00.inst     0.000903                       # miss rate for overall accesses (Ratio)
system.cpu0.icache.overallMissRate::total     0.000903                       # miss rate for overall accesses (Ratio)
system.cpu0.icache.demandAvgMissLatency::cpu00.inst 62032.406829                       # average overall miss latency in ticks ((Tick/Count))
system.cpu0.icache.demandAvgMissLatency::total 62032.406829                       # average overall miss latency in ticks ((Tick/Count))
system.cpu0.icache.overallAvgMissLatency::cpu00.inst 62032.406829                       # average overall miss latency ((Tick/Count))
system.cpu0.icache.overallAvgMissLatency::total 62032.406829                       # average overall miss latency ((Tick/Count))
system.cpu0.icache.blockedCycles::no_mshrs         1250                       # number of cycles access was blocked (Cycle)
system.cpu0.icache.blockedCycles::no_targets            0                       # number of cycles access was blocked (Cycle)
system.cpu0.icache.blockedCauses::no_mshrs           14                       # number of times access was blocked (Count)
system.cpu0.icache.blockedCauses::no_targets            0                       # number of times access was blocked (Count)
system.cpu0.icache.avgBlocked::no_mshrs     89.285714                       # average number of cycles each access was blocked ((Cycle/Count))
system.cpu0.icache.avgBlocked::no_targets          nan                       # average number of cycles each access was blocked ((Cycle/Count))
system.cpu0.icache.writebacks::writebacks         2223                       # number of writebacks (Count)
system.cpu0.icache.writebacks::total             2223                       # number of writebacks (Count)
system.cpu0.icache.demandMshrHits::cpu00.inst          719                       # number of demand (read+write) MSHR hits (Count)
system.cpu0.icache.demandMshrHits::total          719                       # number of demand (read+write) MSHR hits (Count)
system.cpu0.icache.overallMshrHits::cpu00.inst          719                       # number of overall MSHR hits (Count)
system.cpu0.icache.overallMshrHits::total          719                       # number of overall MSHR hits (Count)
system.cpu0.icache.demandMshrMisses::cpu00.inst         2737                       # number of demand (read+write) MSHR misses (Count)
system.cpu0.icache.demandMshrMisses::total         2737                       # number of demand (read+write) MSHR misses (Count)
system.cpu0.icache.overallMshrMisses::cpu00.inst         2737                       # number of overall MSHR misses (Count)
system.cpu0.icache.overallMshrMisses::total         2737                       # number of overall MSHR misses (Count)
system.cpu0.icache.demandMshrMissLatency::cpu00.inst    174313999                       # number of demand (read+write) MSHR miss ticks (Tick)
system.cpu0.icache.demandMshrMissLatency::total    174313999                       # number of demand (read+write) MSHR miss ticks (Tick)
system.cpu0.icache.overallMshrMissLatency::cpu00.inst    174313999                       # number of overall MSHR miss ticks (Tick)
system.cpu0.icache.overallMshrMissLatency::total    174313999                       # number of overall MSHR miss ticks (Tick)
system.cpu0.icache.demandMshrMissRate::cpu00.inst     0.000715                       # mshr miss ratio for demand accesses (Ratio)
system.cpu0.icache.demandMshrMissRate::total     0.000715                       # mshr miss ratio for demand accesses (Ratio)
system.cpu0.icache.overallMshrMissRate::cpu00.inst     0.000715                       # mshr miss ratio for overall accesses (Ratio)
system.cpu0.icache.overallMshrMissRate::total     0.000715                       # mshr miss ratio for overall accesses (Ratio)
system.cpu0.icache.demandAvgMshrMissLatency::cpu00.inst 63687.979174                       # average overall mshr miss latency ((Tick/Count))
system.cpu0.icache.demandAvgMshrMissLatency::total 63687.979174                       # average overall mshr miss latency ((Tick/Count))
system.cpu0.icache.overallAvgMshrMissLatency::cpu00.inst 63687.979174                       # average overall mshr miss latency ((Tick/Count))
system.cpu0.icache.overallAvgMshrMissLatency::total 63687.979174                       # average overall mshr miss latency ((Tick/Count))
system.cpu0.icache.replacements                  2223                       # number of replacements (Count)
system.cpu0.icache.ReadReq.hits::cpu00.inst      3825545                       # number of ReadReq hits (Count)
system.cpu0.icache.ReadReq.hits::total        3825545                       # number of ReadReq hits (Count)
system.cpu0.icache.ReadReq.misses::cpu00.inst         3456                       # number of ReadReq misses (Count)
system.cpu0.icache.ReadReq.misses::total         3456                       # number of ReadReq misses (Count)
system.cpu0.icache.ReadReq.missLatency::cpu00.inst    214383998                       # number of ReadReq miss ticks (Tick)
system.cpu0.icache.ReadReq.missLatency::total    214383998                       # number of ReadReq miss ticks (Tick)
system.cpu0.icache.ReadReq.accesses::cpu00.inst      3829001                       # number of ReadReq accesses(hits+misses) (Count)
system.cpu0.icache.ReadReq.accesses::total      3829001                       # number of ReadReq accesses(hits+misses) (Count)
system.cpu0.icache.ReadReq.missRate::cpu00.inst     0.000903                       # miss rate for ReadReq accesses (Ratio)
system.cpu0.icache.ReadReq.missRate::total     0.000903                       # miss rate for ReadReq accesses (Ratio)
system.cpu0.icache.ReadReq.avgMissLatency::cpu00.inst 62032.406829                       # average ReadReq miss latency ((Tick/Count))
system.cpu0.icache.ReadReq.avgMissLatency::total 62032.406829                       # average ReadReq miss latency ((Tick/Count))
system.cpu0.icache.ReadReq.mshrHits::cpu00.inst          719                       # number of ReadReq MSHR hits (Count)
system.cpu0.icache.ReadReq.mshrHits::total          719                       # number of ReadReq MSHR hits (Count)
system.cpu0.icache.ReadReq.mshrMisses::cpu00.inst         2737                       # number of ReadReq MSHR misses (Count)
system.cpu0.icache.ReadReq.mshrMisses::total         2737                       # number of ReadReq MSHR misses (Count)
system.cpu0.icache.ReadReq.mshrMissLatency::cpu00.inst    174313999                       # number of ReadReq MSHR miss ticks (Tick)
system.cpu0.icache.ReadReq.mshrMissLatency::total    174313999                       # number of ReadReq MSHR miss ticks (Tick)
system.cpu0.icache.ReadReq.mshrMissRate::cpu00.inst     0.000715                       # mshr miss rate for ReadReq accesses (Ratio)
system.cpu0.icache.ReadReq.mshrMissRate::total     0.000715                       # mshr miss rate for ReadReq accesses (Ratio)
system.cpu0.icache.ReadReq.avgMshrMissLatency::cpu00.inst 63687.979174                       # average ReadReq mshr miss latency ((Tick/Count))
system.cpu0.icache.ReadReq.avgMshrMissLatency::total 63687.979174                       # average ReadReq mshr miss latency ((Tick/Count))
system.cpu0.icache.power_state.pwrStateResidencyTicks::UNDEFINED  25542344500                       # Cumulative time (in ticks) in various power states (Tick)
system.cpu0.icache.tags.tagsInUse          511.325216                       # Average ticks per tags in use ((Tick/Count))
system.cpu0.icache.tags.totalRefs             3828281                       # Total number of references to valid blocks. (Count)
system.cpu0.icache.tags.sampledRefs              2736                       # Sample count of references to valid blocks. (Count)
system.cpu0.icache.tags.avgRefs           1399.225512                       # Average number of references to valid blocks. ((Count/Count))
system.cpu0.icache.tags.warmupTick              80000                       # The tick when the warmup percentage was hit. (Tick)
system.cpu0.icache.tags.occupancies::cpu00.inst   511.325216                       # Average occupied blocks per tick, per requestor ((Count/Tick))
system.cpu0.icache.tags.avgOccs::cpu00.inst     0.998682                       # Average percentage of cache occupancy ((Ratio/Tick))
system.cpu0.icache.tags.avgOccs::total       0.998682                       # Average percentage of cache occupancy ((Ratio/Tick))
system.cpu0.icache.tags.occupanciesTaskId::1024          512                       # Occupied blocks per task id (Count)
system.cpu0.icache.tags.ageTaskId_1024::0          115                       # Occupied blocks per task id, per block age (Count)
system.cpu0.icache.tags.ageTaskId_1024::1           70                       # Occupied blocks per task id, per block age (Count)
system.cpu0.icache.tags.ageTaskId_1024::4          327                       # Occupied blocks per task id, per block age (Count)
system.cpu0.icache.tags.ratioOccsTaskId::1024            1                       # Ratio of occupied blocks and all blocks, per task id (Ratio)
system.cpu0.icache.tags.tagAccesses           7660738                       # Number of tag accesses (Count)
system.cpu0.icache.tags.dataAccesses          7660738                       # Number of data accesses (Count)
system.cpu0.icache.tags.power_state.pwrStateResidencyTicks::UNDEFINED  25542344500                       # Cumulative time (in ticks) in various power states (Tick)
system.cpu0.iew.idleCycles                          0                       # Number of cycles IEW is idle (Cycle)
system.cpu0.iew.squashCycles                    12623                       # Number of cycles IEW is squashing (Cycle)
system.cpu0.iew.blockCycles                  30002413                       # Number of cycles IEW is blocking (Cycle)
system.cpu0.iew.unblockCycles                 9308366                       # Number of cycles IEW is unblocking (Cycle)
system.cpu0.iew.dispatchedInsts              46405627                       # Number of instructions dispatched to IQ (Count)
system.cpu0.iew.dispSquashedInsts                1125                       # Number of squashed instructions skipped by dispatch (Count)
system.cpu0.iew.dispLoadInsts                 7797922                       # Number of dispatched load instructions (Count)
system.cpu0.iew.dispStoreInsts                1329681                       # Number of dispatched store instructions (Count)
system.cpu0.iew.dispNonSpecInsts                  635                       # Number of dispatched non-speculative instructions (Count)
system.cpu0.iew.iqFullEvents                   727322                       # Number of times the IQ has become full, causing a stall (Count)
system.cpu0.iew.lsqFullEvents                 8572181                       # Number of times the LSQ has become full, causing a stall (Count)
system.cpu0.iew.memOrderViolationEvents           285                       # Number of memory order violations (Count)
system.cpu0.iew.predictedTakenIncorrect          2775                       # Number of branches that were predicted taken incorrectly (Count)
system.cpu0.iew.predictedNotTakenIncorrect         8009                       # Number of branches that were predicted not taken incorrectly (Count)
system.cpu0.iew.branchMispredicts               10784                       # Number of branch mispredicts detected at execute (Count)
system.cpu0.iew.instsToCommit                46235439                       # Cumulative count of insts sent to commit (Count)
system.cpu0.iew.writebackCount               46226480                       # Cumulative count of insts written-back (Count)
system.cpu0.iew.producerInst                 33300104                       # Number of instructions producing a value (Count)
system.cpu0.iew.consumerInst                 54723011                       # Number of instructions consuming a value (Count)
system.cpu0.iew.wbRate                       0.452449                       # Insts written-back per cycle ((Count/Cycle))
system.cpu0.iew.wbFanout                     0.608521                       # Average fanout of values written-back ((Count/Count))
system.cpu0.interrupts.clk_domain.clock          4000                       # Clock period in ticks (Tick)
system.cpu0.itb_walker_cache.blockedCycles::no_mshrs            0                       # number of cycles access was blocked (Cycle)
system.cpu0.itb_walker_cache.blockedCycles::no_targets            0                       # number of cycles access was blocked (Cycle)
system.cpu0.itb_walker_cache.blockedCauses::no_mshrs            0                       # number of times access was blocked (Count)
system.cpu0.itb_walker_cache.blockedCauses::no_targets            0                       # number of times access was blocked (Count)
system.cpu0.itb_walker_cache.avgBlocked::no_mshrs          nan                       # average number of cycles each access was blocked ((Cycle/Count))
system.cpu0.itb_walker_cache.avgBlocked::no_targets          nan                       # average number of cycles each access was blocked ((Cycle/Count))
system.cpu0.itb_walker_cache.replacements            0                       # number of replacements (Count)
system.cpu0.itb_walker_cache.power_state.pwrStateResidencyTicks::UNDEFINED  25542344500                       # Cumulative time (in ticks) in various power states (Tick)
system.cpu0.itb_walker_cache.tags.tagsInUse            0                       # Average ticks per tags in use ((Tick/Count))
[...]
system.membus.snoopTraffic                     299392                       # Total snoop traffic (Byte)
system.membus.snoopFanout::samples            5892576                       # Request fanout histogram (Count)
system.membus.snoopFanout::mean              0.009584                       # Request fanout histogram (Count)
system.membus.snoopFanout::stdev             0.278375                       # Request fanout histogram (Count)
system.membus.snoopFanout::underflows               0      0.00%      0.00% # Request fanout histogram (Count)
system.membus.snoopFanout::0                  5870609     99.63%     99.63% # Request fanout histogram (Count)
system.membus.snoopFanout::1                    17508      0.30%     99.92% # Request fanout histogram (Count)
system.membus.snoopFanout::2                      504      0.01%     99.93% # Request fanout histogram (Count)
system.membus.snoopFanout::3                      402      0.01%     99.94% # Request fanout histogram (Count)
system.membus.snoopFanout::4                      285      0.00%     99.94% # Request fanout histogram (Count)
system.membus.snoopFanout::5                      296      0.01%     99.95% # Request fanout histogram (Count)
system.membus.snoopFanout::6                      247      0.00%     99.95% # Request fanout histogram (Count)
system.membus.snoopFanout::7                      230      0.00%     99.96% # Request fanout histogram (Count)
system.membus.snoopFanout::8                      232      0.00%     99.96% # Request fanout histogram (Count)
system.membus.snoopFanout::9                      230      0.00%     99.97% # Request fanout histogram (Count)
system.membus.snoopFanout::10                     228      0.00%     99.97% # Request fanout histogram (Count)
system.membus.snoopFanout::11                     227      0.00%     99.97% # Request fanout histogram (Count)
system.membus.snoopFanout::12                     224      0.00%     99.98% # Request fanout histogram (Count)
system.membus.snoopFanout::13                     228      0.00%     99.98% # Request fanout histogram (Count)
system.membus.snoopFanout::14                     218      0.00%     99.98% # Request fanout histogram (Count)
system.membus.snoopFanout::15                     900      0.02%    100.00% # Request fanout histogram (Count)
system.membus.snoopFanout::16                       6      0.00%    100.00% # Request fanout histogram (Count)
system.membus.snoopFanout::17                       1      0.00%    100.00% # Request fanout histogram (Count)
system.membus.snoopFanout::18                       1      0.00%    100.00% # Request fanout histogram (Count)
system.membus.snoopFanout::19                       0      0.00%    100.00% # Request fanout histogram (Count)
system.membus.snoopFanout::20                       0      0.00%    100.00% # Request fanout histogram (Count)
system.membus.snoopFanout::21                       0      0.00%    100.00% # Request fanout histogram (Count)
system.membus.snoopFanout::22                       0      0.00%    100.00% # Request fanout histogram (Count)
system.membus.snoopFanout::23                       0      0.00%    100.00% # Request fanout histogram (Count)
system.membus.snoopFanout::24                       0      0.00%    100.00% # Request fanout histogram (Count)
system.membus.snoopFanout::25                       0      0.00%    100.00% # Request fanout histogram (Count)
system.membus.snoopFanout::26                       0      0.00%    100.00% # Request fanout histogram (Count)
system.membus.snoopFanout::27                       0      0.00%    100.00% # Request fanout histogram (Count)
system.membus.snoopFanout::28                       0      0.00%    100.00% # Request fanout histogram (Count)
system.membus.snoopFanout::29                       0      0.00%    100.00% # Request fanout histogram (Count)
system.membus.snoopFanout::30                       0      0.00%    100.00% # Request fanout histogram (Count)
system.membus.snoopFanout::31                       0      0.00%    100.00% # Request fanout histogram (Count)
system.membus.snoopFanout::32                       0      0.00%    100.00% # Request fanout histogram (Count)
system.membus.snoopFanout::33                       0      0.00%    100.00% # Request fanout histogram (Count)
system.membus.snoopFanout::34                       0      0.00%    100.00% # Request fanout histogram (Count)
system.membus.snoopFanout::35                       0      0.00%    100.00% # Request fanout histogram (Count)
system.membus.snoopFanout::36                       0      0.00%    100.00% # Request fanout histogram (Count)
system.membus.snoopFanout::37                       0      0.00%    100.00% # Request fanout histogram (Count)
system.membus.snoopFanout::38                       0      0.00%    100.00% # Request fanout histogram (Count)
system.membus.snoopFanout::39                       0      0.00%    100.00% # Request fanout histogram (Count)
system.membus.snoopFanout::40                       0      0.00%    100.00% # Request fanout histogram (Count)
system.membus.snoopFanout::41                       0      0.00%    100.00% # Request fanout histogram (Count)
system.membus.snoopFanout::42                       0      0.00%    100.00% # Request fanout histogram (Count)
system.membus.snoopFanout::43                       0      0.00%    100.00% # Request fanout histogram (Count)
system.membus.snoopFanout::44                       0      0.00%    100.00% # Request fanout histogram (Count)
system.membus.snoopFanout::45                       0      0.00%    100.00% # Request fanout histogram (Count)
system.membus.snoopFanout::46                       0      0.00%    100.00% # Request fanout histogram (Count)
system.membus.snoopFanout::47                       0      0.00%    100.00% # Request fanout histogram (Count)
system.membus.snoopFanout::48                       0      0.00%    100.00% # Request fanout histogram (Count)
system.membus.snoopFanout::49                       0      0.00%    100.00% # Request fanout histogram (Count)
system.membus.snoopFanout::50                       0      0.00%    100.00% # Request fanout histogram (Count)
system.membus.snoopFanout::51                       0      0.00%    100.00% # Request fanout histogram (Count)
system.membus.snoopFanout::52                       0      0.00%    100.00% # Request fanout histogram (Count)
system.membus.snoopFanout::53                       0      0.00%    100.00% # Request fanout histogram (Count)
system.membus.snoopFanout::54                       0      0.00%    100.00% # Request fanout histogram (Count)
system.membus.snoopFanout::55                       0      0.00%    100.00% # Request fanout histogram (Count)
system.membus.snoopFanout::56                       0      0.00%    100.00% # Request fanout histogram (Count)
system.membus.snoopFanout::57                       0      0.00%    100.00% # Request fanout histogram (Count)
system.membus.snoopFanout::58                       0      0.00%    100.00% # Request fanout histogram (Count)
system.membus.snoopFanout::59                       0      0.00%    100.00% # Request fanout histogram (Count)
system.membus.snoopFanout::60                       0      0.00%    100.00% # Request fanout histogram (Count)
system.membus.snoopFanout::61                       0      0.00%    100.00% # Request fanout histogram (Count)
system.membus.snoopFanout::62                       0      0.00%    100.00% # Request fanout histogram (Count)
system.membus.snoopFanout::63                       0      0.00%    100.00% # Request fanout histogram (Count)
system.membus.snoopFanout::64                       0      0.00%    100.00% # Request fanout histogram (Count)
system.membus.snoopFanout::overflows                0      0.00%    100.00% # Request fanout histogram (Count)
system.membus.snoopFanout::min_value                0                       # Request fanout histogram (Count)
system.membus.snoopFanout::max_value               18                       # Request fanout histogram (Count)
system.membus.snoopFanout::total              5892576                       # Request fanout histogram (Count)
system.membus.power_state.pwrStateResidencyTicks::UNDEFINED  25542344500                       # Cumulative time (in ticks) in various power states (Tick)
system.membus.reqLayer32.occupancy         1653473265                       # Layer occupancy (ticks) (Tick)
system.membus.reqLayer32.utilization              0.1                       # Layer utilization (Ratio)
system.membus.reqLayer33.occupancy         1653542807                       # Layer occupancy (ticks) (Tick)
system.membus.reqLayer33.utilization              0.1                       # Layer utilization (Ratio)
system.membus.reqLayer34.occupancy         1654189346                       # Layer occupancy (ticks) (Tick)
system.membus.reqLayer34.utilization              0.1                       # Layer utilization (Ratio)
system.membus.reqLayer35.occupancy         1653662602                       # Layer occupancy (ticks) (Tick)
system.membus.reqLayer35.utilization              0.1                       # Layer utilization (Ratio)
system.membus.reqLayer36.occupancy         1653605261                       # Layer occupancy (ticks) (Tick)
system.membus.reqLayer36.utilization              0.1                       # Layer utilization (Ratio)
system.membus.reqLayer37.occupancy         1653322115                       # Layer occupancy (ticks) (Tick)
system.membus.reqLayer37.utilization              0.1                       # Layer utilization (Ratio)
system.membus.reqLayer38.occupancy         1653211820                       # Layer occupancy (ticks) (Tick)
system.membus.reqLayer38.utilization              0.1                       # Layer utilization (Ratio)
system.membus.reqLayer39.occupancy         1653613701                       # Layer occupancy (ticks) (Tick)
system.membus.reqLayer39.utilization              0.1                       # Layer utilization (Ratio)
system.membus.reqLayer40.occupancy         1655128700                       # Layer occupancy (ticks) (Tick)
system.membus.reqLayer40.utilization              0.1                       # Layer utilization (Ratio)
system.membus.reqLayer41.occupancy         1652918586                       # Layer occupancy (ticks) (Tick)
system.membus.reqLayer41.utilization              0.1                       # Layer utilization (Ratio)
system.membus.reqLayer42.occupancy         1656377663                       # Layer occupancy (ticks) (Tick)
system.membus.reqLayer42.utilization              0.1                       # Layer utilization (Ratio)
system.membus.reqLayer43.occupancy         1656679365                       # Layer occupancy (ticks) (Tick)
system.membus.reqLayer43.utilization              0.1                       # Layer utilization (Ratio)
system.membus.reqLayer44.occupancy         1653557186                       # Layer occupancy (ticks) (Tick)
system.membus.reqLayer44.utilization              0.1                       # Layer utilization (Ratio)
system.membus.reqLayer45.occupancy         1654108534                       # Layer occupancy (ticks) (Tick)
system.membus.reqLayer45.utilization              0.1                       # Layer utilization (Ratio)
system.membus.reqLayer46.occupancy         1655535128                       # Layer occupancy (ticks) (Tick)
system.membus.reqLayer46.utilization              0.1                       # Layer utilization (Ratio)
system.membus.reqLayer47.occupancy         1654770683                       # Layer occupancy (ticks) (Tick)
system.membus.reqLayer47.utilization              0.1                       # Layer utilization (Ratio)
system.membus.respLayer1.occupancy           13743997                       # Layer occupancy (ticks) (Tick)
system.membus.respLayer1.utilization              0.0                       # Layer utilization (Ratio)
system.membus.respLayer11.occupancy            702999                       # Layer occupancy (ticks) (Tick)
system.membus.respLayer11.utilization             0.0                       # Layer utilization (Ratio)
system.membus.respLayer12.occupancy        1753345497                       # Layer occupancy (ticks) (Tick)
system.membus.respLayer12.utilization             0.1                       # Layer utilization (Ratio)
system.membus.respLayer16.occupancy            684748                       # Layer occupancy (ticks) (Tick)
system.membus.respLayer16.utilization             0.0                       # Layer utilization (Ratio)
system.membus.respLayer17.occupancy        1753735747                       # Layer occupancy (ticks) (Tick)
system.membus.respLayer17.utilization             0.1                       # Layer utilization (Ratio)
system.membus.respLayer2.occupancy         3690285057                       # Layer occupancy (ticks) (Tick)
system.membus.respLayer2.utilization              0.1                       # Layer utilization (Ratio)
system.membus.respLayer21.occupancy            348249                       # Layer occupancy (ticks) (Tick)
system.membus.respLayer21.utilization             0.0                       # Layer utilization (Ratio)
system.membus.respLayer22.occupancy        1751183589                       # Layer occupancy (ticks) (Tick)
system.membus.respLayer22.utilization             0.1                       # Layer utilization (Ratio)
system.membus.respLayer26.occupancy            342000                       # Layer occupancy (ticks) (Tick)
system.membus.respLayer26.utilization             0.0                       # Layer utilization (Ratio)
system.membus.respLayer27.occupancy        1749441682                       # Layer occupancy (ticks) (Tick)
system.membus.respLayer27.utilization             0.1                       # Layer utilization (Ratio)
system.membus.respLayer31.occupancy            342499                       # Layer occupancy (ticks) (Tick)
system.membus.respLayer31.utilization             0.0                       # Layer utilization (Ratio)
system.membus.respLayer32.occupancy        1749797989                       # Layer occupancy (ticks) (Tick)
system.membus.respLayer32.utilization             0.1                       # Layer utilization (Ratio)
system.membus.respLayer36.occupancy            342250                       # Layer occupancy (ticks) (Tick)
system.membus.respLayer36.utilization             0.0                       # Layer utilization (Ratio)
system.membus.respLayer37.occupancy        1745539262                       # Layer occupancy (ticks) (Tick)
system.membus.respLayer37.utilization             0.1                       # Layer utilization (Ratio)
system.membus.respLayer41.occupancy            364000                       # Layer occupancy (ticks) (Tick)
system.membus.respLayer41.utilization             0.0                       # Layer utilization (Ratio)
system.membus.respLayer42.occupancy        1745104995                       # Layer occupancy (ticks) (Tick)
system.membus.respLayer42.utilization             0.1                       # Layer utilization (Ratio)
system.membus.respLayer46.occupancy            342000                       # Layer occupancy (ticks) (Tick)
system.membus.respLayer46.utilization             0.0                       # Layer utilization (Ratio)
system.membus.respLayer47.occupancy        1749211758                       # Layer occupancy (ticks) (Tick)
system.membus.respLayer47.utilization             0.1                       # Layer utilization (Ratio)
system.membus.respLayer51.occupancy            362500                       # Layer occupancy (ticks) (Tick)
system.membus.respLayer51.utilization             0.0                       # Layer utilization (Ratio)
system.membus.respLayer52.occupancy        1743658028                       # Layer occupancy (ticks) (Tick)
system.membus.respLayer52.utilization             0.1                       # Layer utilization (Ratio)
system.membus.respLayer56.occupancy            362750                       # Layer occupancy (ticks) (Tick)
system.membus.respLayer56.utilization             0.0                       # Layer utilization (Ratio)
system.membus.respLayer57.occupancy        1749719818                       # Layer occupancy (ticks) (Tick)
system.membus.respLayer57.utilization             0.1                       # Layer utilization (Ratio)
system.membus.respLayer6.occupancy             713999                       # Layer occupancy (ticks) (Tick)
system.membus.respLayer6.utilization              0.0                       # Layer utilization (Ratio)
system.membus.respLayer61.occupancy            363500                       # Layer occupancy (ticks) (Tick)
system.membus.respLayer61.utilization             0.0                       # Layer utilization (Ratio)
system.membus.respLayer62.occupancy        1746844696                       # Layer occupancy (ticks) (Tick)
system.membus.respLayer62.utilization             0.1                       # Layer utilization (Ratio)
system.membus.respLayer66.occupancy            325249                       # Layer occupancy (ticks) (Tick)
system.membus.respLayer66.utilization             0.0                       # Layer utilization (Ratio)
system.membus.respLayer67.occupancy        1751834907                       # Layer occupancy (ticks) (Tick)
system.membus.respLayer67.utilization             0.1                       # Layer utilization (Ratio)
system.membus.respLayer7.occupancy         1750580173                       # Layer occupancy (ticks) (Tick)
system.membus.respLayer7.utilization              0.1                       # Layer utilization (Ratio)
system.membus.respLayer71.occupancy            342500                       # Layer occupancy (ticks) (Tick)
system.membus.respLayer71.utilization             0.0                       # Layer utilization (Ratio)
system.membus.respLayer72.occupancy        1749971897                       # Layer occupancy (ticks) (Tick)
system.membus.respLayer72.utilization             0.1                       # Layer utilization (Ratio)
system.membus.respLayer76.occupancy            341000                       # Layer occupancy (ticks) (Tick)
system.membus.respLayer76.utilization             0.0                       # Layer utilization (Ratio)
system.membus.respLayer77.occupancy        1751890875                       # Layer occupancy (ticks) (Tick)
system.membus.respLayer77.utilization             0.1                       # Layer utilization (Ratio)
system.membus.snoop_filter.totRequests       11764339                       # Total number of requests made to the snoop filter. (Count)
system.membus.snoop_filter.hitSingleRequests      5871711                       # Number of requests hitting in the snoop filter with a single holder of the requested data. (Count)
system.membus.snoop_filter.hitMultiRequests        22469                       # Number of requests hitting in the snoop filter with multiple (>1) holders of the requested data. (Count)
system.membus.snoop_filter.totSnoops                0                       # Total number of snoops made to the snoop filter. (Count)
system.membus.snoop_filter.hitSingleSnoops            0                       # Number of snoops hitting in the snoop filter with a single holder of the requested data. (Count)
system.membus.snoop_filter.hitMultiSnoops            0                       # Number of snoops hitting in the snoop filter with multiple (>1) holders of the requested data. (Count)
system.voltage_domain.voltage                       1                       # Voltage in Volts (Volt)
system.workload.inst.arm                            0                       # number of arm instructions executed (Count)
system.workload.inst.quiesce                        0                       # number of quiesce instructions executed (Count)

---------- End Simulation Statistics   ----------
