
---------- Begin Simulation Statistics ----------
simSeconds                                   0.483827                       # Number of seconds simulated (Second)
simTicks                                 483826721500                       # Number of ticks simulated (Tick)
finalTick                                483826721500                       # Number of ticks from beginning of simulation (restored from checkpoints and never reset) (Tick)
simFreq                                  1000000000000                       # The number of ticks per simulated second ((Tick/Second))
hostSeconds                                    179.42                       # Real time elapsed on the host (Second)
hostTickRate                               2696661728                       # The number of ticks simulated per host second (ticks/s) ((Tick/Second))
hostMemory                                     677632                       # Number of bytes of host memory used (Byte)
simInsts                                     89974112                       # Number of instructions simulated (Count)
simOps                                      167417055                       # Number of ops (including micro ops) simulated (Count)
hostInstRate                                   501480                       # Simulator instruction rate (inst/s) ((Count/Second))
hostOpRate                                     933117                       # Simulator op (including micro ops) rate (op/s) ((Count/Second))
system.clk_domain.clock                          1000                       # Clock period in ticks (Tick)
system.cpu.numCycles                       1935306886                       # Number of cpu cycles simulated (Cycle)
system.cpu.numWorkItemsStarted                      0                       # Number of work items this cpu started (Count)
system.cpu.numWorkItemsCompleted                    0                       # Number of work items this cpu completed (Count)
system.cpu.dcache.demandHits::cpu.data       49712075                       # number of demand (read+write) hits (Count)
system.cpu.dcache.demandHits::total          49712075                       # number of demand (read+write) hits (Count)
system.cpu.dcache.overallHits::cpu.data      50212067                       # number of overall hits (Count)
system.cpu.dcache.overallHits::total         50212067                       # number of overall hits (Count)
system.cpu.dcache.demandMisses::cpu.data      5378318                       # number of demand (read+write) misses (Count)
system.cpu.dcache.demandMisses::total         5378318                       # number of demand (read+write) misses (Count)
system.cpu.dcache.overallMisses::cpu.data      5878318                       # number of overall misses (Count)
system.cpu.dcache.overallMisses::total        5878318                       # number of overall misses (Count)
system.cpu.dcache.demandMissLatency::cpu.data 391279330000                       # number of demand (read+write) miss ticks (Tick)
system.cpu.dcache.demandMissLatency::total 391279330000                       # number of demand (read+write) miss ticks (Tick)
system.cpu.dcache.overallMissLatency::cpu.data 391279330000                       # number of overall miss ticks (Tick)
system.cpu.dcache.overallMissLatency::total 391279330000                       # number of overall miss ticks (Tick)
system.cpu.dcache.demandAccesses::cpu.data     55090393                       # number of demand (read+write) accesses (Count)
system.cpu.dcache.demandAccesses::total      55090393                       # number of demand (read+write) accesses (Count)
system.cpu.dcache.overallAccesses::cpu.data     56090385                       # number of overall (read+write) accesses (Count)
system.cpu.dcache.overallAccesses::total     56090385                       # number of overall (read+write) accesses (Count)
system.cpu.dcache.demandMissRate::cpu.data     0.097627                       # miss rate for demand accesses (Ratio)
system.cpu.dcache.demandMissRate::total      0.097627                       # miss rate for demand accesses (Ratio)
system.cpu.dcache.overallMissRate::cpu.data     0.104801                       # miss rate for overall accesses (Ratio)
system.cpu.dcache.overallMissRate::total     0.104801                       # miss rate for overall accesses (Ratio)
system.cpu.dcache.demandAvgMissLatency::cpu.data 72751.244906                       # average overall miss latency in ticks ((Tick/Count))
system.cpu.dcache.demandAvgMissLatency::total 72751.244906                       # average overall miss latency in ticks ((Tick/Count))
system.cpu.dcache.overallAvgMissLatency::cpu.data 66563.144423                       # average overall miss latency ((Tick/Count))
system.cpu.dcache.overallAvgMissLatency::total 66563.144423                       # average overall miss latency ((Tick/Count))
system.cpu.dcache.blockedCycles::no_mshrs            0                       # number of cycles access was blocked (Cycle)
system.cpu.dcache.blockedCycles::no_targets            0                       # number of cycles access was blocked (Cycle)
system.cpu.dcache.blockedCauses::no_mshrs            0                       # number of times access was blocked (Count)
system.cpu.dcache.blockedCauses::no_targets            0                       # number of times access was blocked (Count)
system.cpu.dcache.avgBlocked::no_mshrs            nan                       # average number of cycles each access was blocked ((Cycle/Count))
system.cpu.dcache.avgBlocked::no_targets          nan                       # average number of cycles each access was blocked ((Cycle/Count))
system.cpu.dcache.writebacks::writebacks      2500808                       # number of writebacks (Count)
system.cpu.dcache.writebacks::total           2500808                       # number of writebacks (Count)
system.cpu.dcache.demandMshrMisses::cpu.data      5378318                       # number of demand (read+write) MSHR misses (Count)
system.cpu.dcache.demandMshrMisses::total      5378318                       # number of demand (read+write) MSHR misses (Count)
system.cpu.dcache.overallMshrMisses::cpu.data      5878318                       # number of overall MSHR misses (Count)
system.cpu.dcache.overallMshrMisses::total      5878318                       # number of overall MSHR misses (Count)
system.cpu.dcache.demandMshrMissLatency::cpu.data 388590171000                       # number of demand (read+write) MSHR miss ticks (Tick)
system.cpu.dcache.demandMshrMissLatency::total 388590171000                       # number of demand (read+write) MSHR miss ticks (Tick)
system.cpu.dcache.overallMshrMissLatency::cpu.data 423949169000                       # number of overall MSHR miss ticks (Tick)
system.cpu.dcache.overallMshrMissLatency::total 423949169000                       # number of overall MSHR miss ticks (Tick)
system.cpu.dcache.demandMshrMissRate::cpu.data     0.097627                       # mshr miss ratio for demand accesses (Ratio)
system.cpu.dcache.demandMshrMissRate::total     0.097627                       # mshr miss ratio for demand accesses (Ratio)
system.cpu.dcache.overallMshrMissRate::cpu.data     0.104801                       # mshr miss ratio for overall accesses (Ratio)
system.cpu.dcache.overallMshrMissRate::total     0.104801                       # mshr miss ratio for overall accesses (Ratio)
system.cpu.dcache.demandAvgMshrMissLatency::cpu.data 72251.244906                       # average overall mshr miss latency ((Tick/Count))
system.cpu.dcache.demandAvgMshrMissLatency::total 72251.244906                       # average overall mshr miss latency ((Tick/Count))
system.cpu.dcache.overallAvgMshrMissLatency::cpu.data 72120.829292                       # average overall mshr miss latency ((Tick/Count))
system.cpu.dcache.overallAvgMshrMissLatency::total 72120.829292                       # average overall mshr miss latency ((Tick/Count))
system.cpu.dcache.replacements                5877294                       # number of replacements (Count)
system.cpu.dcache.ReadReq.hits::cpu.data     32062516                       # number of ReadReq hits (Count)
system.cpu.dcache.ReadReq.hits::total        32062516                       # number of ReadReq hits (Count)
system.cpu.dcache.ReadReq.misses::cpu.data      3002578                       # number of ReadReq misses (Count)
system.cpu.dcache.ReadReq.misses::total       3002578                       # number of ReadReq misses (Count)
system.cpu.dcache.ReadReq.missLatency::cpu.data 219688631250                       # number of ReadReq miss ticks (Tick)
system.cpu.dcache.ReadReq.missLatency::total 219688631250                       # number of ReadReq miss ticks (Tick)
system.cpu.dcache.ReadReq.accesses::cpu.data     35065094                       # number of ReadReq accesses(hits+misses) (Count)
system.cpu.dcache.ReadReq.accesses::total     35065094                       # number of ReadReq accesses(hits+misses) (Count)
system.cpu.dcache.ReadReq.missRate::cpu.data     0.085629                       # miss rate for ReadReq accesses (Ratio)
system.cpu.dcache.ReadReq.missRate::total     0.085629                       # miss rate for ReadReq accesses (Ratio)
system.cpu.dcache.ReadReq.avgMissLatency::cpu.data 73166.669192                       # average ReadReq miss latency ((Tick/Count))
system.cpu.dcache.ReadReq.avgMissLatency::total 73166.669192                       # average ReadReq miss latency ((Tick/Count))
system.cpu.dcache.ReadReq.mshrMisses::cpu.data      3002578                       # number of ReadReq MSHR misses (Count)
system.cpu.dcache.ReadReq.mshrMisses::total      3002578                       # number of ReadReq MSHR misses (Count)
system.cpu.dcache.ReadReq.mshrMissLatency::cpu.data 218187342250                       # number of ReadReq MSHR miss ticks (Tick)
system.cpu.dcache.ReadReq.mshrMissLatency::total 218187342250                       # number of ReadReq MSHR miss ticks (Tick)
system.cpu.dcache.ReadReq.mshrMissRate::cpu.data     0.085629                       # mshr miss rate for ReadReq accesses (Ratio)
system.cpu.dcache.ReadReq.mshrMissRate::total     0.085629                       # mshr miss rate for ReadReq accesses (Ratio)
system.cpu.dcache.ReadReq.avgMshrMissLatency::cpu.data 72666.669192                       # average ReadReq mshr miss latency ((Tick/Count))
system.cpu.dcache.ReadReq.avgMshrMissLatency::total 72666.669192                       # average ReadReq mshr miss latency ((Tick/Count))
system.cpu.dcache.SoftPFReq.hits::cpu.data       499992                       # number of SoftPFReq hits (Count)
system.cpu.dcache.SoftPFReq.hits::total        499992                       # number of SoftPFReq hits (Count)
system.cpu.dcache.SoftPFReq.misses::cpu.data       500000                       # number of SoftPFReq misses (Count)
system.cpu.dcache.SoftPFReq.misses::total       500000                       # number of SoftPFReq misses (Count)
system.cpu.dcache.SoftPFReq.accesses::cpu.data       999992                       # number of SoftPFReq accesses(hits+misses) (Count)
system.cpu.dcache.SoftPFReq.accesses::total       999992                       # number of SoftPFReq accesses(hits+misses) (Count)
system.cpu.dcache.SoftPFReq.missRate::cpu.data     0.500004                       # miss rate for SoftPFReq accesses (Ratio)
system.cpu.dcache.SoftPFReq.missRate::total     0.500004                       # miss rate for SoftPFReq accesses (Ratio)
system.cpu.dcache.SoftPFReq.mshrMisses::cpu.data       500000                       # number of SoftPFReq MSHR misses (Count)
system.cpu.dcache.SoftPFReq.mshrMisses::total       500000                       # number of SoftPFReq MSHR misses (Count)
system.cpu.dcache.SoftPFReq.mshrMissLatency::cpu.data  35358998000                       # number of SoftPFReq MSHR miss ticks (Tick)
system.cpu.dcache.SoftPFReq.mshrMissLatency::total  35358998000                       # number of SoftPFReq MSHR miss ticks (Tick)
system.cpu.dcache.SoftPFReq.mshrMissRate::cpu.data     0.500004                       # mshr miss rate for SoftPFReq accesses (Ratio)
system.cpu.dcache.SoftPFReq.mshrMissRate::total     0.500004                       # mshr miss rate for SoftPFReq accesses (Ratio)
system.cpu.dcache.SoftPFReq.avgMshrMissLatency::cpu.data 70717.996000                       # average SoftPFReq mshr miss latency ((Tick/Count))
system.cpu.dcache.SoftPFReq.avgMshrMissLatency::total 70717.996000                       # average SoftPFReq mshr miss latency ((Tick/Count))
system.cpu.dcache.WriteReq.hits::cpu.data     17649559                       # number of WriteReq hits (Count)
system.cpu.dcache.WriteReq.hits::total       17649559                       # number of WriteReq hits (Count)
system.cpu.dcache.WriteReq.misses::cpu.data      2375740                       # number of WriteReq misses (Count)
system.cpu.dcache.WriteReq.misses::total      2375740                       # number of WriteReq misses (Count)
system.cpu.dcache.WriteReq.missLatency::cpu.data 171590698750                       # number of WriteReq miss ticks (Tick)
system.cpu.dcache.WriteReq.missLatency::total 171590698750                       # number of WriteReq miss ticks (Tick)
system.cpu.dcache.WriteReq.accesses::cpu.data     20025299                       # number of WriteReq accesses(hits+misses) (Count)
system.cpu.dcache.WriteReq.accesses::total     20025299                       # number of WriteReq accesses(hits+misses) (Count)
system.cpu.dcache.WriteReq.missRate::cpu.data     0.118637                       # miss rate for WriteReq accesses (Ratio)
system.cpu.dcache.WriteReq.missRate::total     0.118637                       # miss rate for WriteReq accesses (Ratio)
system.cpu.dcache.WriteReq.avgMissLatency::cpu.data 72226.211096                       # average WriteReq miss latency ((Tick/Count))
system.cpu.dcache.WriteReq.avgMissLatency::total 72226.211096                       # average WriteReq miss latency ((Tick/Count))
system.cpu.dcache.WriteReq.mshrMisses::cpu.data      2375740                       # number of WriteReq MSHR misses (Count)
system.cpu.dcache.WriteReq.mshrMisses::total      2375740                       # number of WriteReq MSHR misses (Count)
system.cpu.dcache.WriteReq.mshrMissLatency::cpu.data 170402828750                       # number of WriteReq MSHR miss ticks (Tick)
system.cpu.dcache.WriteReq.mshrMissLatency::total 170402828750                       # number of WriteReq MSHR miss ticks (Tick)
system.cpu.dcache.WriteReq.mshrMissRate::cpu.data     0.118637                       # mshr miss rate for WriteReq accesses (Ratio)
system.cpu.dcache.WriteReq.mshrMissRate::total     0.118637                       # mshr miss rate for WriteReq accesses (Ratio)
system.cpu.dcache.WriteReq.avgMshrMissLatency::cpu.data 71726.211096                       # average WriteReq mshr miss latency ((Tick/Count))
system.cpu.dcache.WriteReq.avgMshrMissLatency::total 71726.211096                       # average WriteReq mshr miss latency ((Tick/Count))
system.cpu.dcache.power_state.pwrStateResidencyTicks::UNDEFINED 483826721500                       # Cumulative time (in ticks) in various power states (Tick)
system.cpu.dcache.tags.tagsInUse          1023.802822                       # Average ticks per tags in use ((Tick/Count))
system.cpu.dcache.tags.totalRefs             56090385                       # Total number of references to valid blocks. (Count)
system.cpu.dcache.tags.sampledRefs            5878318                       # Sample count of references to valid blocks. (Count)
system.cpu.dcache.tags.avgRefs               9.541911                       # Average number of references to valid blocks. ((Count/Count))
system.cpu.dcache.tags.warmupTick              151000                       # The tick when the warmup percentage was hit. (Tick)
system.cpu.dcache.tags.occupancies::cpu.data  1023.802822                       # Average occupied blocks per tick, per requestor ((Count/Tick))
system.cpu.dcache.tags.avgOccs::cpu.data     0.999807                       # Average percentage of cache occupancy ((Ratio/Tick))
system.cpu.dcache.tags.avgOccs::total        0.999807                       # Average percentage of cache occupancy ((Ratio/Tick))
system.cpu.dcache.tags.occupanciesTaskId::1024         1024                       # Occupied blocks per task id (Count)
system.cpu.dcache.tags.ageTaskId_1024::0           46                       # Occupied blocks per task id, per block age (Count)
system.cpu.dcache.tags.ageTaskId_1024::1          641                       # Occupied blocks per task id, per block age (Count)
system.cpu.dcache.tags.ageTaskId_1024::2          336                       # Occupied blocks per task id, per block age (Count)
system.cpu.dcache.tags.ageTaskId_1024::4            1                       # Occupied blocks per task id, per block age (Count)
system.cpu.dcache.tags.ratioOccsTaskId::1024            1                       # Ratio of occupied blocks and all blocks, per task id (Ratio)
system.cpu.dcache.tags.tagAccesses          118059088                       # Number of tag accesses (Count)
system.cpu.dcache.tags.dataAccesses         118059088                       # Number of data accesses (Count)
system.cpu.dcache.tags.power_state.pwrStateResidencyTicks::UNDEFINED 483826721500                       # Cumulative time (in ticks) in various power states (Tick)
system.cpu.dtb_walker_cache.blockedCycles::no_mshrs            0                       # number of cycles access was blocked (Cycle)
system.cpu.dtb_walker_cache.blockedCycles::no_targets            0                       # number of cycles access was blocked (Cycle)
system.cpu.dtb_walker_cache.blockedCauses::no_mshrs            0                       # number of times access was blocked (Count)
system.cpu.dtb_walker_cache.blockedCauses::no_targets            0                       # number of times access was blocked (Count)
system.cpu.dtb_walker_cache.avgBlocked::no_mshrs          nan                       # average number of cycles each access was blocked ((Cycle/Count))
system.cpu.dtb_walker_cache.avgBlocked::no_targets          nan                       # average number of cycles each access was blocked ((Cycle/Count))
system.cpu.dtb_walker_cache.replacements            0                       # number of replacements (Count)
system.cpu.dtb_walker_cache.power_state.pwrStateResidencyTicks::UNDEFINED 483826721500                       # Cumulative time (in ticks) in various power states (Tick)
system.cpu.dtb_walker_cache.tags.tagsInUse            0                       # Average ticks per tags in use ((Tick/Count))
system.cpu.dtb_walker_cache.tags.totalRefs            0                       # Total number of references to valid blocks. (Count)
system.cpu.dtb_walker_cache.tags.sampledRefs            0                       # Sample count of references to valid blocks. (Count)
system.cpu.dtb_walker_cache.tags.avgRefs          nan                       # Average number of references to valid blocks. ((Count/Count))
system.cpu.dtb_walker_cache.tags.warmupTick            0                       # The tick when the warmup percentage was hit. (Tick)
system.cpu.dtb_walker_cache.tags.tagAccesses            0                       # Number of tag accesses (Count)
system.cpu.dtb_walker_cache.tags.dataAccesses            0                       # Number of data accesses (Count)
system.cpu.dtb_walker_cache.tags.power_state.pwrStateResidencyTicks::UNDEFINED 483826721500                       # Cumulative time (in ticks) in various power states (Tick)
system.cpu.exec_context.thread_0.numInsts     89974112                       # Number of instructions committed (Count)
system.cpu.exec_context.thread_0.numOps     167417055                       # Number of ops (including micro ops) committed (Count)
system.cpu.exec_context.thread_0.numIntAluAccesses    121394363                       # Number of integer alu accesses (Count)
system.cpu.exec_context.thread_0.numFpAluAccesses    100025356                       # Number of float alu accesses (Count)
system.cpu.exec_context.thread_0.numVecAluAccesses            0                       # Number of vector alu accesses (Count)
system.cpu.exec_context.thread_0.numCallsReturns         7258                       # Number of times a function call or return occured (Count)
system.cpu.exec_context.thread_0.numCondCtrlInsts      8947806                       # Number of instructions that are conditional controls (Count)
system.cpu.exec_context.thread_0.numIntInsts    121394363                       # Number of integer instructions (Count)
system.cpu.exec_context.thread_0.numFpInsts    100025356                       # Number of float instructions (Count)
system.cpu.exec_context.thread_0.numVecInsts            0                       # Number of vector instructions (Count)
system.cpu.exec_context.thread_0.numIntRegReads    120029117                       # Number of times the integer registers were read (Count)
system.cpu.exec_context.thread_0.numIntRegWrites     48460245                       # Number of times the integer registers were written (Count)
system.cpu.exec_context.thread_0.numFpRegReads    110037101                       # Number of times the floating registers were read (Count)
system.cpu.exec_context.thread_0.numFpRegWrites     78021930                       # Number of times the floating registers were written (Count)
system.cpu.exec_context.thread_0.numVecRegReads            0                       # Number of times the vector registers were read (Count)
system.cpu.exec_context.thread_0.numVecRegWrites            0                       # Number of times the vector registers were written (Count)
system.cpu.exec_context.thread_0.numVecPredRegReads            0                       # Number of times the predicate registers were read (Count)
system.cpu.exec_context.thread_0.numVecPredRegWrites            0                       # Number of times the predicate registers were written (Count)
system.cpu.exec_context.thread_0.numCCRegReads     50799996                       # Number of times the CC registers were read (Count)
system.cpu.exec_context.thread_0.numCCRegWrites     39785408                       # Number of times the CC registers were written (Count)
system.cpu.exec_context.thread_0.numMiscRegReads     80013732                       # Number of times the Misc registers were read (Count)
system.cpu.exec_context.thread_0.numMiscRegWrites           18                       # Number of times the Misc registers were written (Count)
system.cpu.exec_context.thread_0.numMemRefs     58090369                       # Number of memory refs (Count)
system.cpu.exec_context.thread_0.numLoadInsts     36065097                       # Number of load instructions (Count)
system.cpu.exec_context.thread_0.numStoreInsts     22025272                       # Number of store instructions (Count)
system.cpu.exec_context.thread_0.numIdleCycles     0.004000                       # Number of idle cycles (Cycle)
system.cpu.exec_context.thread_0.numBusyCycles 1935306885.996000                       # Number of busy cycles (Cycle)
system.cpu.exec_context.thread_0.notIdleFraction     1.000000                       # Percentage of non-idle cycles (Ratio)
system.cpu.exec_context.thread_0.idleFraction     0.000000                       # Percentage of idle cycles (Ratio)
system.cpu.exec_context.thread_0.numBranches      8962533                       # Number of branches fetched (Count)
system.cpu.exec_context.thread_0.statExecutedInstType::No_OpClass      2005324      1.18%      1.18% # Class of executed instruction. (Count)
system.cpu.exec_context.thread_0.statExecutedInstType::IntAlu     71305378     42.09%     43.27% # Class of executed instruction. (Count)
system.cpu.exec_context.thread_0.statExecutedInstType::IntMult          202      0.00%     43.27% # Class of executed instruction. (Count)
system.cpu.exec_context.thread_0.statExecutedInstType::IntDiv         1584      0.00%     43.27% # Class of executed instruction. (Count)
system.cpu.exec_context.thread_0.statExecutedInstType::FloatAdd     12001412      7.08%     50.36% # Class of executed instruction. (Count)
system.cpu.exec_context.thread_0.statExecutedInstType::FloatCmp            0      0.00%     50.36% # Class of executed instruction. (Count)
system.cpu.exec_context.thread_0.statExecutedInstType::FloatCvt           32      0.00%     50.36% # Class of executed instruction. (Count)
system.cpu.exec_context.thread_0.statExecutedInstType::FloatMult            0      0.00%     50.36% # Class of executed instruction. (Count)
system.cpu.exec_context.thread_0.statExecutedInstType::FloatMultAcc            0      0.00%     50.36% # Class of executed instruction. (Count)
system.cpu.exec_context.thread_0.statExecutedInstType::FloatDiv            0      0.00%     50.36% # Class of executed instruction. (Count)
system.cpu.exec_context.thread_0.statExecutedInstType::FloatMisc            0      0.00%     50.36% # Class of executed instruction. (Count)
system.cpu.exec_context.thread_0.statExecutedInstType::FloatSqrt            0      0.00%     50.36% # Class of executed instruction. (Count)
system.cpu.exec_context.thread_0.statExecutedInstType::SimdAdd          340      0.00%     50.36% # Class of executed instruction. (Count)
system.cpu.exec_context.thread_0.statExecutedInstType::SimdAddAcc            0      0.00%     50.36% # Class of executed instruction. (Count)
system.cpu.exec_context.thread_0.statExecutedInstType::SimdAlu         4959      0.00%     50.36% # Class of executed instruction. (Count)
system.cpu.exec_context.thread_0.statExecutedInstType::SimdCmp            6      0.00%     50.36% # Class of executed instruction. (Count)
system.cpu.exec_context.thread_0.statExecutedInstType::SimdCvt         1234      0.00%     50.36% # Class of executed instruction. (Count)
system.cpu.exec_context.thread_0.statExecutedInstType::SimdMisc         1575      0.00%     50.36% # Class of executed instruction. (Count)
system.cpu.exec_context.thread_0.statExecutedInstType::SimdMult            0      0.00%     50.36% # Class of executed instruction. (Count)
system.cpu.exec_context.thread_0.statExecutedInstType::SimdMultAcc            0      0.00%     50.36% # Class of executed instruction. (Count)
system.cpu.exec_context.thread_0.statExecutedInstType::SimdShift           99      0.00%     50.36% # Class of executed instruction. (Count)
system.cpu.exec_context.thread_0.statExecutedInstType::SimdShiftAcc            0      0.00%     50.36% # Class of executed instruction. (Count)
system.cpu.exec_context.thread_0.statExecutedInstType::SimdDiv            0      0.00%     50.36% # Class of executed instruction. (Count)
system.cpu.exec_context.thread_0.statExecutedInstType::SimdSqrt            0      0.00%     50.36% # Class of executed instruction. (Count)
system.cpu.exec_context.thread_0.statExecutedInstType::SimdFloatAdd     15001826      8.85%     59.22% # Class of executed instruction. (Count)
system.cpu.exec_context.thread_0.statExecutedInstType::SimdFloatAlu            0      0.00%     59.22% # Class of executed instruction. (Count)
system.cpu.exec_context.thread_0.statExecutedInstType::SimdFloatCmp           24      0.00%     59.22% # Class of executed instruction. (Count)
system.cpu.exec_context.thread_0.statExecutedInstType::SimdFloatCvt      3002752      1.77%     60.99% # Class of executed instruction. (Count)
system.cpu.exec_context.thread_0.statExecutedInstType::SimdFloatDiv           15      0.00%     60.99% # Class of executed instruction. (Count)
system.cpu.exec_context.thread_0.statExecutedInstType::SimdFloatMisc            0      0.00%     60.99% # Class of executed instruction. (Count)
system.cpu.exec_context.thread_0.statExecutedInstType::SimdFloatMult      8000944      4.72%     65.71% # Class of executed instruction. (Count)
system.cpu.exec_context.thread_0.statExecutedInstType::SimdFloatMultAcc            0      0.00%     65.71% # Class of executed instruction. (Count)
system.cpu.exec_context.thread_0.statExecutedInstType::SimdFloatSqrt            0      0.00%     65.71% # Class of executed instruction. (Count)
system.cpu.exec_context.thread_0.statExecutedInstType::SimdReduceAdd            0      0.00%     65.71% # Class of executed instruction. (Count)
system.cpu.exec_context.thread_0.statExecutedInstType::SimdReduceAlu            0      0.00%     65.71% # Class of executed instruction. (Count)
system.cpu.exec_context.thread_0.statExecutedInstType::SimdReduceCmp            0      0.00%     65.71% # Class of executed instruction. (Count)
system.cpu.exec_context.thread_0.statExecutedInstType::SimdFloatReduceAdd            0      0.00%     65.71% # Class of executed instruction. (Count)
system.cpu.exec_context.thread_0.statExecutedInstType::SimdFloatReduceCmp            0      0.00%     65.71% # Class of executed instruction. (Count)
system.cpu.exec_context.thread_0.statExecutedInstType::SimdAes            0      0.00%     65.71% # Class of executed instruction. (Count)
system.cpu.exec_context.thread_0.statExecutedInstType::SimdAesMix            0      0.00%     65.71% # Class of executed instruction. (Count)
system.cpu.exec_context.thread_0.statExecutedInstType::SimdSha1Hash            0      0.00%     65.71% # Class of executed instruction. (Count)
system.cpu.exec_context.thread_0.statExecutedInstType::SimdSha1Hash2            0      0.00%     65.71% # Class of executed instruction. (Count)
system.cpu.exec_context.thread_0.statExecutedInstType::SimdSha256Hash            0      0.00%     65.71% # Class of executed instruction. (Count)
system.cpu.exec_context.thread_0.statExecutedInstType::SimdSha256Hash2            0      0.00%     65.71% # Class of executed instruction. (Count)
system.cpu.exec_context.thread_0.statExecutedInstType::SimdShaSigma2            0      0.00%     65.71% # Class of executed instruction. (Count)
system.cpu.exec_context.thread_0.statExecutedInstType::SimdShaSigma3            0      0.00%     65.71% # Class of executed instruction. (Count)
system.cpu.exec_context.thread_0.statExecutedInstType::SimdPredAlu            0      0.00%     65.71% # Class of executed instruction. (Count)
system.cpu.exec_context.thread_0.statExecutedInstType::MemRead      1058895      0.63%     66.34% # Class of executed instruction. (Count)
system.cpu.exec_context.thread_0.statExecutedInstType::MemWrite      3023615      1.78%     68.12% # Class of executed instruction. (Count)
system.cpu.exec_context.thread_0.statExecutedInstType::FloatMemRead     35006202     20.66%     88.78% # Class of executed instruction. (Count)
system.cpu.exec_context.thread_0.statExecutedInstType::FloatMemWrite     19001657     11.22%    100.00% # Class of executed instruction. (Count)
system.cpu.exec_context.thread_0.statExecutedInstType::IprAccess            0      0.00%    100.00% # Class of executed instruction. (Count)
system.cpu.exec_context.thread_0.statExecutedInstType::InstPrefetch            0      0.00%    100.00% # Class of executed instruction. (Count)
system.cpu.exec_context.thread_0.statExecutedInstType::total    169418075                       # Class of executed instruction. (Count)
system.cpu.icache.demandHits::cpu.inst      134158110                       # number of demand (read+write) hits (Count)
system.cpu.icache.demandHits::total         134158110                       # number of demand (read+write) hits (Count)
system.cpu.icache.overallHits::cpu.inst     134158110                       # number of overall hits (Count)
system.cpu.icache.overallHits::total        134158110                       # number of overall hits (Count)
system.cpu.icache.demandMisses::cpu.inst         1614                       # number of demand (read+write) misses (Count)
system.cpu.icache.demandMisses::total            1614                       # number of demand (read+write) misses (Count)
system.cpu.icache.overallMisses::cpu.inst         1614                       # number of overall misses (Count)
system.cpu.icache.overallMisses::total           1614                       # number of overall misses (Count)
system.cpu.icache.demandMissLatency::cpu.inst    105809500                       # number of demand (read+write) miss ticks (Tick)
system.cpu.icache.demandMissLatency::total    105809500                       # number of demand (read+write) miss ticks (Tick)
system.cpu.icache.overallMissLatency::cpu.inst    105809500                       # number of overall miss ticks (Tick)
system.cpu.icache.overallMissLatency::total    105809500                       # number of overall miss ticks (Tick)
system.cpu.icache.demandAccesses::cpu.inst    134159724                       # number of demand (read+write) accesses (Count)
system.cpu.icache.demandAccesses::total     134159724                       # number of demand (read+write) accesses (Count)
system.cpu.icache.overallAccesses::cpu.inst    134159724                       # number of overall (read+write) accesses (Count)
system.cpu.icache.overallAccesses::total    134159724                       # number of overall (read+write) accesses (Count)
system.cpu.icache.demandMissRate::cpu.inst     0.000012                       # miss rate for demand accesses (Ratio)
system.cpu.icache.demandMissRate::total      0.000012                       # miss rate for demand accesses (Ratio)
system.cpu.icache.overallMissRate::cpu.inst     0.000012                       # miss rate for overall accesses (Ratio)
system.cpu.icache.overallMissRate::total     0.000012                       # miss rate for overall accesses (Ratio)
system.cpu.icache.demandAvgMissLatency::cpu.inst 65557.311029                       # average overall miss latency in ticks ((Tick/Count))
system.cpu.icache.demandAvgMissLatency::total 65557.311029                       # average overall miss latency in ticks ((Tick/Count))
system.cpu.icache.overallAvgMissLatency::cpu.inst 65557.311029                       # average overall miss latency ((Tick/Count))
system.cpu.icache.overallAvgMissLatency::total 65557.311029                       # average overall miss latency ((Tick/Count))
system.cpu.icache.blockedCycles::no_mshrs            0                       # number of cycles access was blocked (Cycle)
system.cpu.icache.blockedCycles::no_targets            0                       # number of cycles access was blocked (Cycle)
system.cpu.icache.blockedCauses::no_mshrs            0                       # number of times access was blocked (Count)
system.cpu.icache.blockedCauses::no_targets            0                       # number of times access was blocked (Count)
system.cpu.icache.avgBlocked::no_mshrs            nan                       # average number of cycles each access was blocked ((Cycle/Count))
system.cpu.icache.avgBlocked::no_targets          nan                       # average number of cycles each access was blocked ((Cycle/Count))
system.cpu.icache.writebacks::writebacks         1112                       # number of writebacks (Count)
system.cpu.icache.writebacks::total              1112                       # number of writebacks (Count)
system.cpu.icache.demandMshrMisses::cpu.inst         1614                       # number of demand (read+write) MSHR misses (Count)
system.cpu.icache.demandMshrMisses::total         1614                       # number of demand (read+write) MSHR misses (Count)
system.cpu.icache.overallMshrMisses::cpu.inst         1614                       # number of overall MSHR misses (Count)
system.cpu.icache.overallMshrMisses::total         1614                       # number of overall MSHR misses (Count)
system.cpu.icache.demandMshrMissLatency::cpu.inst    105002500                       # number of demand (read+write) MSHR miss ticks (Tick)
system.cpu.icache.demandMshrMissLatency::total    105002500                       # number of demand (read+write) MSHR miss ticks (Tick)
system.cpu.icache.overallMshrMissLatency::cpu.inst    105002500                       # number of overall MSHR miss ticks (Tick)
system.cpu.icache.overallMshrMissLatency::total    105002500                       # number of overall MSHR miss ticks (Tick)
system.cpu.icache.demandMshrMissRate::cpu.inst     0.000012                       # mshr miss ratio for demand accesses (Ratio)
system.cpu.icache.demandMshrMissRate::total     0.000012                       # mshr miss ratio for demand accesses (Ratio)
system.cpu.icache.overallMshrMissRate::cpu.inst     0.000012                       # mshr miss ratio for overall accesses (Ratio)
system.cpu.icache.overallMshrMissRate::total     0.000012                       # mshr miss ratio for overall accesses (Ratio)
system.cpu.icache.demandAvgMshrMissLatency::cpu.inst 65057.311029                       # average overall mshr miss latency ((Tick/Count))
system.cpu.icache.demandAvgMshrMissLatency::total 65057.311029                       # average overall mshr miss latency ((Tick/Count))
system.cpu.icache.overallAvgMshrMissLatency::cpu.inst 65057.311029                       # average overall mshr miss latency ((Tick/Count))
system.cpu.icache.overallAvgMshrMissLatency::total 65057.311029                       # average overall mshr miss latency ((Tick/Count))
system.cpu.icache.replacements                   1112                       # number of replacements (Count)
system.cpu.icache.ReadReq.hits::cpu.inst    134158110                       # number of ReadReq hits (Count)
system.cpu.icache.ReadReq.hits::total       134158110                       # number of ReadReq hits (Count)
system.cpu.icache.ReadReq.misses::cpu.inst         1614                       # number of ReadReq misses (Count)
system.cpu.icache.ReadReq.misses::total          1614                       # number of ReadReq misses (Count)
system.cpu.icache.ReadReq.missLatency::cpu.inst    105809500                       # number of ReadReq miss ticks (Tick)
system.cpu.icache.ReadReq.missLatency::total    105809500                       # number of ReadReq miss ticks (Tick)
system.cpu.icache.ReadReq.accesses::cpu.inst    134159724                       # number of ReadReq accesses(hits+misses) (Count)
system.cpu.icache.ReadReq.accesses::total    134159724                       # number of ReadReq accesses(hits+misses) (Count)
system.cpu.icache.ReadReq.missRate::cpu.inst     0.000012                       # miss rate for ReadReq accesses (Ratio)
system.cpu.icache.ReadReq.missRate::total     0.000012                       # miss rate for ReadReq accesses (Ratio)
system.cpu.icache.ReadReq.avgMissLatency::cpu.inst 65557.311029                       # average ReadReq miss latency ((Tick/Count))
system.cpu.icache.ReadReq.avgMissLatency::total 65557.311029                       # average ReadReq miss latency ((Tick/Count))
system.cpu.icache.ReadReq.mshrMisses::cpu.inst         1614                       # number of ReadReq MSHR misses (Count)
system.cpu.icache.ReadReq.mshrMisses::total         1614                       # number of ReadReq MSHR misses (Count)
system.cpu.icache.ReadReq.mshrMissLatency::cpu.inst    105002500                       # number of ReadReq MSHR miss ticks (Tick)
system.cpu.icache.ReadReq.mshrMissLatency::total    105002500                       # number of ReadReq MSHR miss ticks (Tick)
system.cpu.icache.ReadReq.mshrMissRate::cpu.inst     0.000012                       # mshr miss rate for ReadReq accesses (Ratio)
system.cpu.icache.ReadReq.mshrMissRate::total     0.000012                       # mshr miss rate for ReadReq accesses (Ratio)
system.cpu.icache.ReadReq.avgMshrMissLatency::cpu.inst 65057.311029                       # average ReadReq mshr miss latency ((Tick/Count))
system.cpu.icache.ReadReq.avgMshrMissLatency::total 65057.311029                       # average ReadReq mshr miss latency ((Tick/Count))
system.cpu.icache.power_state.pwrStateResidencyTicks::UNDEFINED 483826721500                       # Cumulative time (in ticks) in various power states (Tick)
system.cpu.icache.tags.tagsInUse           495.218425                       # Average ticks per tags in use ((Tick/Count))
system.cpu.icache.tags.totalRefs            134159724                       # Total number of references to valid blocks. (Count)
system.cpu.icache.tags.sampledRefs               1614                       # Sample count of references to valid blocks. (Count)
system.cpu.icache.tags.avgRefs           83122.505576                       # Average number of references to valid blocks. ((Count/Count))
system.cpu.icache.tags.warmupTick               80000                       # The tick when the warmup percentage was hit. (Tick)
system.cpu.icache.tags.occupancies::cpu.inst   495.218425                       # Average occupied blocks per tick, per requestor ((Count/Tick))
system.cpu.icache.tags.avgOccs::cpu.inst     0.967223                       # Average percentage of cache occupancy ((Ratio/Tick))
system.cpu.icache.tags.avgOccs::total        0.967223                       # Average percentage of cache occupancy ((Ratio/Tick))
system.cpu.icache.tags.occupanciesTaskId::1024          502                       # Occupied blocks per task id (Count)
system.cpu.icache.tags.ageTaskId_1024::0           73                       # Occupied blocks per task id, per block age (Count)
system.cpu.icache.tags.ageTaskId_1024::1           32                       # Occupied blocks per task id, per block age (Count)
system.cpu.icache.tags.ageTaskId_1024::4          397                       # Occupied blocks per task id, per block age (Count)
system.cpu.icache.tags.ratioOccsTaskId::1024     0.980469                       # Ratio of occupied blocks and all blocks, per task id (Ratio)
system.cpu.icache.tags.tagAccesses          268321062                       # Number of tag accesses (Count)
system.cpu.icache.tags.dataAccesses         268321062                       # Number of data accesses (Count)
system.cpu.icache.tags.power_state.pwrStateResidencyTicks::UNDEFINED 483826721500                       # Cumulative time (in ticks) in various power states (Tick)
system.cpu.interrupts.clk_domain.clock           4000                       # Clock period in ticks (Tick)
system.cpu.itb_walker_cache.blockedCycles::no_mshrs            0                       # number of cycles access was blocked (Cycle)
system.cpu.itb_walker_cache.blockedCycles::no_targets            0                       # number of cycles access was blocked (Cycle)
system.cpu.itb_walker_cache.blockedCauses::no_mshrs            0                       # number of times access was blocked (Count)
system.cpu.itb_walker_cache.blockedCauses::no_targets            0                       # number of times access was blocked (Count)
system.cpu.itb_walker_cache.avgBlocked::no_mshrs          nan                       # average number of cycles each access was blocked ((Cycle/Count))
system.cpu.itb_walker_cache.avgBlocked::no_targets          nan                       # average number of cycles each access was blocked ((Cycle/Count))
system.cpu.itb_walker_cache.replacements            0                       # number of replacements (Count)
system.cpu.itb_walker_cache.power_state.pwrStateResidencyTicks::UNDEFINED 483826721500                       # Cumulative time (in ticks) in various power states (Tick)
system.cpu.itb_walker_cache.tags.tagsInUse            0                       # Average ticks per tags in use ((Tick/Count))
system.cpu.itb_walker_cache.tags.totalRefs            0                       # Total number of references to valid blocks. (Count)
system.cpu.itb_walker_cache.tags.sampledRefs            0                       # Sample count of references to valid blocks. (Count)
system.cpu.itb_walker_cache.tags.avgRefs          nan                       # Average number of references to valid blocks. ((Count/Count))
system.cpu.itb_walker_cache.tags.warmupTick            0                       # The tick when the warmup percentage was hit. (Tick)
system.cpu.itb_walker_cache.tags.tagAccesses            0                       # Number of tag accesses (Count)
system.cpu.itb_walker_cache.tags.dataAccesses            0                       # Number of data accesses (Count)
system.cpu.itb_walker_cache.tags.power_state.pwrStateResidencyTicks::UNDEFINED 483826721500                       # Cumulative time (in ticks) in various power states (Tick)
system.cpu.mmu.dtb.rdAccesses                36065136                       # TLB accesses on read requests (Count)
system.cpu.mmu.dtb.wrAccesses                22025294                       # TLB accesses on write requests (Count)
system.cpu.mmu.dtb.rdMisses                     54955                       # TLB misses on read requests (Count)
system.cpu.mmu.dtb.wrMisses                     37170                       # TLB misses on write requests (Count)
system.cpu.mmu.dtb.walker.power_state.pwrStateResidencyTicks::UNDEFINED 483826721500                       # Cumulative time (in ticks) in various power states (Tick)
system.cpu.mmu.itb.rdAccesses                       0                       # TLB accesses on read requests (Count)
system.cpu.mmu.itb.wrAccesses               134159774                       # TLB accesses on write requests (Count)
system.cpu.mmu.itb.rdMisses                         0                       # TLB misses on read requests (Count)
system.cpu.mmu.itb.wrMisses                       175                       # TLB misses on write requests (Count)
system.cpu.mmu.itb.walker.power_state.pwrStateResidencyTicks::UNDEFINED 483826721500                       # Cumulative time (in ticks) in various power states (Tick)
system.cpu.power_state.pwrStateResidencyTicks::ON 483826721500                       # Cumulative time (in ticks) in various power states (Tick)
system.cpu.thread_0.numInsts                        0                       # Number of Instructions committed (Count)
system.cpu.thread_0.numOps                          0                       # Number of Ops committed (Count)
system.cpu.thread_0.numMemRefs                      0                       # Number of Memory References (Count)
system.cpu.workload.numSyscalls                   975                       # Number of system calls (Count)
system.cpu_clk_domain.clock                       250                       # Clock period in ticks (Tick)
system.cpu_voltage_domain.voltage                   1                       # Voltage in Volts (Volt)
system.mem_ctrls0.avgPriority_writebacks::samples   2501613.00                       # Average QoS priority value for accepted requests (Count)
system.mem_ctrls0.avgPriority_cpu.inst::samples      1270.00                       # Average QoS priority value for accepted requests (Count)
system.mem_ctrls0.avgPriority_cpu.data::samples   5878332.00                       # Average QoS priority value for accepted requests (Count)
system.mem_ctrls0.priorityMinLatency     0.000000020000                       # per QoS priority minimum request to response latency (Second)
system.mem_ctrls0.priorityMaxLatency     0.084400443000                       # per QoS priority maximum request to response latency (Second)
system.mem_ctrls0.numReadWriteTurnArounds       145984                       # Number of turnarounds from READ to WRITE (Count)
system.mem_ctrls0.numWriteReadTurnArounds       145984                       # Number of turnarounds from WRITE to READ (Count)
system.mem_ctrls0.numStayReadState           10131421                       # Number of times bus staying in READ state (Count)
system.mem_ctrls0.numStayWriteState           2355783                       # Number of times bus staying in WRITE state (Count)
system.mem_ctrls0.readReqs                    2939848                       # Number of read requests accepted (Count)
system.mem_ctrls0.writeReqs                   1250825                       # Number of write requests accepted (Count)
system.mem_ctrls0.readBursts                  5879696                       # Number of controller read bursts, including those serviced by the write queue (Count)
system.mem_ctrls0.writeBursts                 2501650                       # Number of controller write bursts, including those merged in the write queue (Count)
system.mem_ctrls0.servicedByWrQ                    94                       # Number of controller read bursts serviced by the write queue (Count)
system.mem_ctrls0.mergedWrBursts                   37                       # Number of controller write bursts merged with an existing one (Count)
system.mem_ctrls0.neitherReadNorWriteReqs            0                       # Number of requests that are neither read nor write (Count)
system.mem_ctrls0.avgRdQLen                      2.18                       # Average read queue length when enqueuing ((Count/Tick))
system.mem_ctrls0.avgWrQLen                     25.58                       # Average write queue length when enqueuing ((Count/Tick))
system.mem_ctrls0.numRdRetry                        0                       # Number of times read queue was full causing retry (Count)
system.mem_ctrls0.numWrRetry                        0                       # Number of times write queue was full causing retry (Count)
system.mem_ctrls0.readPktSize::0                    0                       # Read request sizes (log2) (Count)
system.mem_ctrls0.readPktSize::1                    0                       # Read request sizes (log2) (Count)
system.mem_ctrls0.readPktSize::2                    0                       # Read request sizes (log2) (Count)
system.mem_ctrls0.readPktSize::3                    0                       # Read request sizes (log2) (Count)
system.mem_ctrls0.readPktSize::4                    0                       # Read request sizes (log2) (Count)
system.mem_ctrls0.readPktSize::5              5879696                       # Read request sizes (log2) (Count)
system.mem_ctrls0.readPktSize::6                    0                       # Read request sizes (log2) (Count)
system.mem_ctrls0.writePktSize::0                   0                       # Write request sizes (log2) (Count)
system.mem_ctrls0.writePktSize::1                   0                       # Write request sizes (log2) (Count)
system.mem_ctrls0.writePktSize::2                   0                       # Write request sizes (log2) (Count)
system.mem_ctrls0.writePktSize::3                   0                       # Write request sizes (log2) (Count)
system.mem_ctrls0.writePktSize::4                   0                       # Write request sizes (log2) (Count)
system.mem_ctrls0.writePktSize::5             2501650                       # Write request sizes (log2) (Count)
system.mem_ctrls0.writePktSize::6                   0                       # Write request sizes (log2) (Count)
system.mem_ctrls0.rdQLenPdf::0                2689806                       # What read queue length does an incoming req see (Count)
system.mem_ctrls0.rdQLenPdf::1                2689802                       # What read queue length does an incoming req see (Count)
system.mem_ctrls0.rdQLenPdf::2                 249997                       # What read queue length does an incoming req see (Count)
system.mem_ctrls0.rdQLenPdf::3                 249997                       # What read queue length does an incoming req see (Count)
system.mem_ctrls0.rdQLenPdf::4                      0                       # What read queue length does an incoming req see (Count)
system.mem_ctrls0.rdQLenPdf::5                      0                       # What read queue length does an incoming req see (Count)
system.mem_ctrls0.rdQLenPdf::6                      0                       # What read queue length does an incoming req see (Count)
system.mem_ctrls0.rdQLenPdf::7                      0                       # What read queue length does an incoming req see (Count)
system.mem_ctrls0.rdQLenPdf::8                      0                       # What read queue length does an incoming req see (Count)
system.mem_ctrls0.rdQLenPdf::9                      0                       # What read queue length does an incoming req see (Count)
system.mem_ctrls0.rdQLenPdf::10                     0                       # What read queue length does an incoming req see (Count)
system.mem_ctrls0.rdQLenPdf::11                     0                       # What read queue length does an incoming req see (Count)
system.mem_ctrls0.rdQLenPdf::12                     0                       # What read queue length does an incoming req see (Count)
system.mem_ctrls0.rdQLenPdf::13                     0                       # What read queue length does an incoming req see (Count)
system.mem_ctrls0.rdQLenPdf::14                     0                       # What read queue length does an incoming req see (Count)
system.mem_ctrls0.rdQLenPdf::15                     0                       # What read queue length does an incoming req see (Count)
system.mem_ctrls0.rdQLenPdf::16                     0                       # What read queue length does an incoming req see (Count)
system.mem_ctrls0.rdQLenPdf::17                     0                       # What read queue length does an incoming req see (Count)
system.mem_ctrls0.rdQLenPdf::18                     0                       # What read queue length does an incoming req see (Count)
system.mem_ctrls0.rdQLenPdf::19                     0                       # What read queue length does an incoming req see (Count)
system.mem_ctrls0.rdQLenPdf::20                     0                       # What read queue length does an incoming req see (Count)
system.mem_ctrls0.rdQLenPdf::21                     0                       # What read queue length does an incoming req see (Count)
system.mem_ctrls0.rdQLenPdf::22                     0                       # What read queue length does an incoming req see (Count)
system.mem_ctrls0.rdQLenPdf::23                     0                       # What read queue length does an incoming req see (Count)
system.mem_ctrls0.rdQLenPdf::24                     0                       # What read queue length does an incoming req see (Count)
system.mem_ctrls0.rdQLenPdf::25                     0                       # What read queue length does an incoming req see (Count)
system.mem_ctrls0.rdQLenPdf::26                     0                       # What read queue length does an incoming req see (Count)
system.mem_ctrls0.rdQLenPdf::27                     0                       # What read queue length does an incoming req see (Count)
system.mem_ctrls0.rdQLenPdf::28                     0                       # What read queue length does an incoming req see (Count)
system.mem_ctrls0.rdQLenPdf::29                     0                       # What read queue length does an incoming req see (Count)
system.mem_ctrls0.rdQLenPdf::30                     0                       # What read queue length does an incoming req see (Count)
system.mem_ctrls0.rdQLenPdf::31                     0                       # What read queue length does an incoming req see (Count)
system.mem_ctrls0.rdQLenPdf::32                     0                       # What read queue length does an incoming req see (Count)
system.mem_ctrls0.rdQLenPdf::33                     0                       # What read queue length does an incoming req see (Count)
system.mem_ctrls0.rdQLenPdf::34                     0                       # What read queue length does an incoming req see (Count)
system.mem_ctrls0.rdQLenPdf::35                     0                       # What read queue length does an incoming req see (Count)
system.mem_ctrls0.rdQLenPdf::36                     0                       # What read queue length does an incoming req see (Count)
system.mem_ctrls0.rdQLenPdf::37                     0                       # What read queue length does an incoming req see (Count)
system.mem_ctrls0.rdQLenPdf::38                     0                       # What read queue length does an incoming req see (Count)
system.mem_ctrls0.rdQLenPdf::39                     0                       # What read queue length does an incoming req see (Count)
system.mem_ctrls0.rdQLenPdf::40                     0                       # What read queue length does an incoming req see (Count)
system.mem_ctrls0.rdQLenPdf::41                     0                       # What read queue length does an incoming req see (Count)
system.mem_ctrls0.rdQLenPdf::42                     0                       # What read queue length does an incoming req see (Count)
system.mem_ctrls0.rdQLenPdf::43                     0                       # What read queue length does an incoming req see (Count)
system.mem_ctrls0.rdQLenPdf::44                     0                       # What read queue length does an incoming req see (Count)
system.mem_ctrls0.rdQLenPdf::45                     0                       # What read queue length does an incoming req see (Count)
system.mem_ctrls0.rdQLenPdf::46                     0                       # What read queue length does an incoming req see (Count)
system.mem_ctrls0.rdQLenPdf::47                     0                       # What read queue length does an incoming req see (Count)
system.mem_ctrls0.rdQLenPdf::48                     0                       # What read queue length does an incoming req see (Count)
system.mem_ctrls0.rdQLenPdf::49                     0                       # What read queue length does an incoming req see (Count)
system.mem_ctrls0.rdQLenPdf::50                     0                       # What read queue length does an incoming req see (Count)
system.mem_ctrls0.rdQLenPdf::51                     0                       # What read queue length does an incoming req see (Count)
system.mem_ctrls0.rdQLenPdf::52                     0                       # What read queue length does an incoming req see (Count)
system.mem_ctrls0.rdQLenPdf::53                     0                       # What read queue length does an incoming req see (Count)
system.mem_ctrls0.rdQLenPdf::54                     0                       # What read queue length does an incoming req see (Count)
system.mem_ctrls0.rdQLenPdf::55                     0                       # What read queue length does an incoming req see (Count)
system.mem_ctrls0.rdQLenPdf::56                     0                       # What read queue length does an incoming req see (Count)
system.mem_ctrls0.rdQLenPdf::57                     0                       # What read queue length does an incoming req see (Count)
system.mem_ctrls0.rdQLenPdf::58                     0                       # What read queue length does an incoming req see (Count)
system.mem_ctrls0.rdQLenPdf::59                     0                       # What read queue length does an incoming req see (Count)
system.mem_ctrls0.rdQLenPdf::60                     0                       # What read queue length does an incoming req see (Count)
system.mem_ctrls0.rdQLenPdf::61                     0                       # What read queue length does an incoming req see (Count)
system.mem_ctrls0.rdQLenPdf::62                     0                       # What read queue length does an incoming req see (Count)
system.mem_ctrls0.rdQLenPdf::63                     0                       # What read queue length does an incoming req see (Count)
system.mem_ctrls0.wrQLenPdf::0                      1                       # What write queue length does an incoming req see (Count)
system.mem_ctrls0.wrQLenPdf::1                      1                       # What write queue length does an incoming req see (Count)
system.mem_ctrls0.wrQLenPdf::2                      1                       # What write queue length does an incoming req see (Count)
system.mem_ctrls0.wrQLenPdf::3                      1                       # What write queue length does an incoming req see (Count)
system.mem_ctrls0.wrQLenPdf::4                      1                       # What write queue length does an incoming req see (Count)
system.mem_ctrls0.wrQLenPdf::5                      1                       # What write queue length does an incoming req see (Count)
system.mem_ctrls0.wrQLenPdf::6                      1                       # What write queue length does an incoming req see (Count)
system.mem_ctrls0.wrQLenPdf::7                      1                       # What write queue length does an incoming req see (Count)
system.mem_ctrls0.wrQLenPdf::8                      1                       # What write queue length does an incoming req see (Count)
system.mem_ctrls0.wrQLenPdf::9                      1                       # What write queue length does an incoming req see (Count)
system.mem_ctrls0.wrQLenPdf::10                     1                       # What write queue length does an incoming req see (Count)
system.mem_ctrls0.wrQLenPdf::11                     1                       # What write queue length does an incoming req see (Count)
system.mem_ctrls0.wrQLenPdf::12                     1                       # What write queue length does an incoming req see (Count)
system.mem_ctrls0.wrQLenPdf::13                     1                       # What write queue length does an incoming req see (Count)
system.mem_ctrls0.wrQLenPdf::14                     1                       # What write queue length does an incoming req see (Count)
system.mem_ctrls0.wrQLenPdf::15                 82887                       # What write queue length does an incoming req see (Count)
system.mem_ctrls0.wrQLenPdf::16                 82892                       # What write queue length does an incoming req see (Count)
system.mem_ctrls0.wrQLenPdf::17                145987                       # What write queue length does an incoming req see (Count)
system.mem_ctrls0.wrQLenPdf::18                146009                       # What write queue length does an incoming req see (Count)
system.mem_ctrls0.wrQLenPdf::19                145990                       # What write queue length does an incoming req see (Count)
system.mem_ctrls0.wrQLenPdf::20                145989                       # What write queue length does an incoming req see (Count)
system.mem_ctrls0.wrQLenPdf::21                145989                       # What write queue length does an incoming req see (Count)
system.mem_ctrls0.wrQLenPdf::22                145987                       # What write queue length does an incoming req see (Count)
system.mem_ctrls0.wrQLenPdf::23                145985                       # What write queue length does an incoming req see (Count)
system.mem_ctrls0.wrQLenPdf::24                145984                       # What write queue length does an incoming req see (Count)
system.mem_ctrls0.wrQLenPdf::25                145984                       # What write queue length does an incoming req see (Count)
system.mem_ctrls0.wrQLenPdf::26                145984                       # What write queue length does an incoming req see (Count)
system.mem_ctrls0.wrQLenPdf::27                145984                       # What write queue length does an incoming req see (Count)
system.mem_ctrls0.wrQLenPdf::28                145984                       # What write queue length does an incoming req see (Count)
system.mem_ctrls0.wrQLenPdf::29                145984                       # What write queue length does an incoming req see (Count)
system.mem_ctrls0.wrQLenPdf::30                145984                       # What write queue length does an incoming req see (Count)
system.mem_ctrls0.wrQLenPdf::31                145984                       # What write queue length does an incoming req see (Count)
system.mem_ctrls0.wrQLenPdf::32                145984                       # What write queue length does an incoming req see (Count)
system.mem_ctrls0.wrQLenPdf::33                    26                       # What write queue length does an incoming req see (Count)
system.mem_ctrls0.wrQLenPdf::34                     1                       # What write queue length does an incoming req see (Count)
system.mem_ctrls0.wrQLenPdf::35                     0                       # What write queue length does an incoming req see (Count)
system.mem_ctrls0.wrQLenPdf::36                     0                       # What write queue length does an incoming req see (Count)
system.mem_ctrls0.wrQLenPdf::37                     0                       # What write queue length does an incoming req see (Count)
system.mem_ctrls0.wrQLenPdf::38                     0                       # What write queue length does an incoming req see (Count)
system.mem_ctrls0.wrQLenPdf::39                     0                       # What write queue length does an incoming req see (Count)
system.mem_ctrls0.wrQLenPdf::40                     0                       # What write queue length does an incoming req see (Count)
system.mem_ctrls0.wrQLenPdf::41                     0                       # What write queue length does an incoming req see (Count)
system.mem_ctrls0.wrQLenPdf::42                     0                       # What write queue length does an incoming req see (Count)
system.mem_ctrls0.wrQLenPdf::43                     0                       # What write queue length does an incoming req see (Count)
system.mem_ctrls0.wrQLenPdf::44                     0                       # What write queue length does an incoming req see (Count)
system.mem_ctrls0.wrQLenPdf::45                     0                       # What write queue length does an incoming req see (Count)
system.mem_ctrls0.wrQLenPdf::46                     0                       # What write queue length does an incoming req see (Count)
system.mem_ctrls0.wrQLenPdf::47                     0                       # What write queue length does an incoming req see (Count)
system.mem_ctrls0.wrQLenPdf::48                     0                       # What write queue length does an incoming req see (Count)
system.mem_ctrls0.wrQLenPdf::49                     0                       # What write queue length does an incoming req see (Count)
system.mem_ctrls0.wrQLenPdf::50                     0                       # What write queue length does an incoming req see (Count)
system.mem_ctrls0.wrQLenPdf::51                     0                       # What write queue length does an incoming req see (Count)
system.mem_ctrls0.wrQLenPdf::52                     0                       # What write queue length does an incoming req see (Count)
system.mem_ctrls0.wrQLenPdf::53                     0                       # What write queue length does an incoming req see (Count)
system.mem_ctrls0.wrQLenPdf::54                     0                       # What write queue length does an incoming req see (Count)
system.mem_ctrls0.wrQLenPdf::55                     0                       # What write queue length does an incoming req see (Count)
system.mem_ctrls0.wrQLenPdf::56                     0                       # What write queue length does an incoming req see (Count)
system.mem_ctrls0.wrQLenPdf::57                     0                       # What write queue length does an incoming req see (Count)
system.mem_ctrls0.wrQLenPdf::58                     0                       # What write queue length does an incoming req see (Count)
system.mem_ctrls0.wrQLenPdf::59                     0                       # What write queue length does an incoming req see (Count)
system.mem_ctrls0.wrQLenPdf::60                     0                       # What write queue length does an incoming req see (Count)
system.mem_ctrls0.wrQLenPdf::61                     0                       # What write queue length does an incoming req see (Count)
system.mem_ctrls0.wrQLenPdf::62                     0                       # What write queue length does an incoming req see (Count)
system.mem_ctrls0.wrQLenPdf::63                     0                       # What write queue length does an incoming req see (Count)
system.mem_ctrls0.rdPerTurnAround::samples       145984                       # Reads before turning the bus around for writes (Count)
system.mem_ctrls0.rdPerTurnAround::mean     40.275606                       # Reads before turning the bus around for writes (Count)
system.mem_ctrls0.rdPerTurnAround::gmean    35.646193                       # Reads before turning the bus around for writes (Count)
system.mem_ctrls0.rdPerTurnAround::stdev   979.434101                       # Reads before turning the bus around for writes (Count)
system.mem_ctrls0.rdPerTurnAround::0-8191       145983    100.00%    100.00% # Reads before turning the bus around for writes (Count)
system.mem_ctrls0.rdPerTurnAround::368640-376831            1      0.00%    100.00% # Reads before turning the bus around for writes (Count)
system.mem_ctrls0.rdPerTurnAround::total       145984                       # Reads before turning the bus around for writes (Count)
system.mem_ctrls0.wrPerTurnAround::samples       145984                       # Writes before turning the bus around for reads (Count)
system.mem_ctrls0.wrPerTurnAround::mean     17.136056                       # Writes before turning the bus around for reads (Count)
system.mem_ctrls0.wrPerTurnAround::gmean    17.107035                       # Writes before turning the bus around for reads (Count)
system.mem_ctrls0.wrPerTurnAround::stdev     0.991672                       # Writes before turning the bus around for reads (Count)
system.mem_ctrls0.wrPerTurnAround::16           63096     43.22%     43.22% # Writes before turning the bus around for reads (Count)
system.mem_ctrls0.wrPerTurnAround::17               1      0.00%     43.22% # Writes before turning the bus around for reads (Count)
system.mem_ctrls0.wrPerTurnAround::18           82850     56.75%     99.97% # Writes before turning the bus around for reads (Count)
system.mem_ctrls0.wrPerTurnAround::19               3      0.00%     99.98% # Writes before turning the bus around for reads (Count)
system.mem_ctrls0.wrPerTurnAround::20              34      0.02%    100.00% # Writes before turning the bus around for reads (Count)
system.mem_ctrls0.wrPerTurnAround::total       145984                       # Writes before turning the bus around for reads (Count)
system.mem_ctrls0.bytesReadWrQ                   3008                       # Total number of bytes read from write queue (Byte)
system.mem_ctrls0.bytesReadSys              188150272                       # Total read bytes from the system interface side (Byte)
system.mem_ctrls0.bytesWrittenSys            80052800                       # Total written bytes from the system interface side (Byte)
system.mem_ctrls0.avgRdBWSys             388879455.47257251                       # Average system read bandwidth in Byte/s ((Byte/Second))
system.mem_ctrls0.avgWrBWSys             165457583.14425799                       # Average system write bandwidth in Byte/s ((Byte/Second))
system.mem_ctrls0.totGap                 483826482000                       # Total gap between requests (Tick)
system.mem_ctrls0.avgGap                    115453.17                       # Average gap between requests ((Tick/Count))
system.mem_ctrls0.requestorReadBytes::cpu.inst        40640                       # Per-requestor bytes read from memory (Byte)
system.mem_ctrls0.requestorReadBytes::cpu.data    188106624                       # Per-requestor bytes read from memory (Byte)
system.mem_ctrls0.requestorWriteBytes::writebacks     80050880                       # Per-requestor bytes write to memory (Byte)
system.mem_ctrls0.requestorReadRate::cpu.inst 83997.014207905842                       # Per-requestor bytes read from memory rate ((Byte/Second))
system.mem_ctrls0.requestorReadRate::cpu.data 388789241.356525599957                       # Per-requestor bytes read from memory rate ((Byte/Second))
system.mem_ctrls0.requestorWriteRate::writebacks 165453614.781382024288                       # Per-requestor bytes write to memory rate ((Byte/Second))
system.mem_ctrls0.requestorReadAccesses::cpu.inst         1336                       # Per-requestor read serviced memory accesses (Count)
system.mem_ctrls0.requestorReadAccesses::cpu.data      5878360                       # Per-requestor read serviced memory accesses (Count)
system.mem_ctrls0.requestorWriteAccesses::writebacks      2501650                       # Per-requestor write serviced memory accesses (Count)
system.mem_ctrls0.requestorReadTotalLat::cpu.inst     49056000                       # Per-requestor read total memory access latency (Tick)
system.mem_ctrls0.requestorReadTotalLat::cpu.data 228099861000                       # Per-requestor read total memory access latency (Tick)
system.mem_ctrls0.requestorWriteTotalLat::writebacks 11449242782000                       # Per-requestor write total memory access latency (Tick)
system.mem_ctrls0.requestorReadAvgLat::cpu.inst     36718.56                       # Per-requestor read average memory access latency ((Tick/Count))
system.mem_ctrls0.requestorReadAvgLat::cpu.data     38803.32                       # Per-requestor read average memory access latency ((Tick/Count))
system.mem_ctrls0.requestorWriteAvgLat::writebacks   4576676.51                       # Per-requestor write average memory access latency ((Tick/Count))
system.mem_ctrls0.dram.bytesRead::cpu.inst        42752                       # Number of bytes read from this memory (Byte)
system.mem_ctrls0.dram.bytesRead::cpu.data    188107520                       # Number of bytes read from this memory (Byte)
system.mem_ctrls0.dram.bytesRead::total     188150272                       # Number of bytes read from this memory (Byte)
system.mem_ctrls0.dram.bytesInstRead::cpu.inst        42752                       # Number of instructions bytes read from this memory (Byte)
system.mem_ctrls0.dram.bytesInstRead::total        42752                       # Number of instructions bytes read from this memory (Byte)
system.mem_ctrls0.dram.bytesWritten::writebacks     80026112                       # Number of bytes written to this memory (Byte)
system.mem_ctrls0.dram.bytesWritten::total     80026112                       # Number of bytes written to this memory (Byte)
system.mem_ctrls0.dram.numReads::cpu.inst          668                       # Number of read requests responded to by this memory (Count)
system.mem_ctrls0.dram.numReads::cpu.data      2939180                       # Number of read requests responded to by this memory (Count)
system.mem_ctrls0.dram.numReads::total        2939848                       # Number of read requests responded to by this memory (Count)
system.mem_ctrls0.dram.numWrites::writebacks      1250408                       # Number of write requests responded to by this memory (Count)
system.mem_ctrls0.dram.numWrites::total       1250408                       # Number of write requests responded to by this memory (Count)
system.mem_ctrls0.dram.bwRead::cpu.inst         88362                       # Total read bandwidth from this memory ((Byte/Second))
system.mem_ctrls0.dram.bwRead::cpu.data     388791093                       # Total read bandwidth from this memory ((Byte/Second))
system.mem_ctrls0.dram.bwRead::total        388879455                       # Total read bandwidth from this memory ((Byte/Second))
system.mem_ctrls0.dram.bwInstRead::cpu.inst        88362                       # Instruction read bandwidth from this memory ((Byte/Second))
system.mem_ctrls0.dram.bwInstRead::total        88362                       # Instruction read bandwidth from this memory ((Byte/Second))
system.mem_ctrls0.dram.bwWrite::writebacks    165402423                       # Write bandwidth from this memory ((Byte/Second))
system.mem_ctrls0.dram.bwWrite::total       165402423                       # Write bandwidth from this memory ((Byte/Second))
system.mem_ctrls0.dram.bwTotal::writebacks    165402423                       # Total bandwidth to/from this memory ((Byte/Second))
system.mem_ctrls0.dram.bwTotal::cpu.inst        88362                       # Total bandwidth to/from this memory ((Byte/Second))
system.mem_ctrls0.dram.bwTotal::cpu.data    388791093                       # Total bandwidth to/from this memory ((Byte/Second))
system.mem_ctrls0.dram.bwTotal::total       554281878                       # Total bandwidth to/from this memory ((Byte/Second))
system.mem_ctrls0.dram.readBursts             5879602                       # Number of DRAM read bursts (Count)
system.mem_ctrls0.dram.writeBursts            2501590                       # Number of DRAM write bursts (Count)
system.mem_ctrls0.dram.perBankRdBursts::0       367264                       # Per bank write bursts (Count)
system.mem_ctrls0.dram.perBankRdBursts::1       367240                       # Per bank write bursts (Count)
system.mem_ctrls0.dram.perBankRdBursts::2       367241                       # Per bank write bursts (Count)
system.mem_ctrls0.dram.perBankRdBursts::3       367244                       # Per bank write bursts (Count)
system.mem_ctrls0.dram.perBankRdBursts::4       367268                       # Per bank write bursts (Count)
system.mem_ctrls0.dram.perBankRdBursts::5       367224                       # Per bank write bursts (Count)
system.mem_ctrls0.dram.perBankRdBursts::6       367308                       # Per bank write bursts (Count)
system.mem_ctrls0.dram.perBankRdBursts::7       367282                       # Per bank write bursts (Count)
system.mem_ctrls0.dram.perBankRdBursts::8       367720                       # Per bank write bursts (Count)
system.mem_ctrls0.dram.perBankRdBursts::9       367764                       # Per bank write bursts (Count)
system.mem_ctrls0.dram.perBankRdBursts::10       367726                       # Per bank write bursts (Count)
system.mem_ctrls0.dram.perBankRdBursts::11       367710                       # Per bank write bursts (Count)
system.mem_ctrls0.dram.perBankRdBursts::12       367772                       # Per bank write bursts (Count)
system.mem_ctrls0.dram.perBankRdBursts::13       367720                       # Per bank write bursts (Count)
system.mem_ctrls0.dram.perBankRdBursts::14       367749                       # Per bank write bursts (Count)
system.mem_ctrls0.dram.perBankRdBursts::15       367370                       # Per bank write bursts (Count)
system.mem_ctrls0.dram.perBankWrBursts::0       156224                       # Per bank write bursts (Count)
system.mem_ctrls0.dram.perBankWrBursts::1       156234                       # Per bank write bursts (Count)
system.mem_ctrls0.dram.perBankWrBursts::2       156232                       # Per bank write bursts (Count)
system.mem_ctrls0.dram.perBankWrBursts::3       156261                       # Per bank write bursts (Count)
system.mem_ctrls0.dram.perBankWrBursts::4       156296                       # Per bank write bursts (Count)
system.mem_ctrls0.dram.perBankWrBursts::5       156270                       # Per bank write bursts (Count)
system.mem_ctrls0.dram.perBankWrBursts::6       156264                       # Per bank write bursts (Count)
system.mem_ctrls0.dram.perBankWrBursts::7       156220                       # Per bank write bursts (Count)
system.mem_ctrls0.dram.perBankWrBursts::8       156492                       # Per bank write bursts (Count)
system.mem_ctrls0.dram.perBankWrBursts::9       156502                       # Per bank write bursts (Count)
system.mem_ctrls0.dram.perBankWrBursts::10       156456                       # Per bank write bursts (Count)
system.mem_ctrls0.dram.perBankWrBursts::11       156414                       # Per bank write bursts (Count)
system.mem_ctrls0.dram.perBankWrBursts::12       156420                       # Per bank write bursts (Count)
system.mem_ctrls0.dram.perBankWrBursts::13       156430                       # Per bank write bursts (Count)
[...]
system.mem_ctrls1.dram.numReads::cpu.data      2939138                       # Number of read requests responded to by this memory (Count)
system.mem_ctrls1.dram.numReads::total        2940084                       # Number of read requests responded to by this memory (Count)
system.mem_ctrls1.dram.numWrites::writebacks      1250400                       # Number of write requests responded to by this memory (Count)
system.mem_ctrls1.dram.numWrites::total       1250400                       # Number of write requests responded to by this memory (Count)
system.mem_ctrls1.dram.bwRead::cpu.inst        125136                       # Total read bandwidth from this memory ((Byte/Second))
system.mem_ctrls1.dram.bwRead::cpu.data     388785538                       # Total read bandwidth from this memory ((Byte/Second))
system.mem_ctrls1.dram.bwRead::total        388910673                       # Total read bandwidth from this memory ((Byte/Second))
system.mem_ctrls1.dram.bwInstRead::cpu.inst       125136                       # Instruction read bandwidth from this memory ((Byte/Second))
system.mem_ctrls1.dram.bwInstRead::total       125136                       # Instruction read bandwidth from this memory ((Byte/Second))
system.mem_ctrls1.dram.bwWrite::writebacks    165401365                       # Write bandwidth from this memory ((Byte/Second))
system.mem_ctrls1.dram.bwWrite::total       165401365                       # Write bandwidth from this memory ((Byte/Second))
system.mem_ctrls1.dram.bwTotal::writebacks    165401365                       # Total bandwidth to/from this memory ((Byte/Second))
system.mem_ctrls1.dram.bwTotal::cpu.inst       125136                       # Total bandwidth to/from this memory ((Byte/Second))
system.mem_ctrls1.dram.bwTotal::cpu.data    388785538                       # Total bandwidth to/from this memory ((Byte/Second))
system.mem_ctrls1.dram.bwTotal::total       554312038                       # Total bandwidth to/from this memory ((Byte/Second))
system.mem_ctrls1.dram.readBursts             5879754                       # Number of DRAM read bursts (Count)
system.mem_ctrls1.dram.writeBursts            2501964                       # Number of DRAM write bursts (Count)
system.mem_ctrls1.dram.perBankRdBursts::0       367271                       # Per bank write bursts (Count)
system.mem_ctrls1.dram.perBankRdBursts::1       367230                       # Per bank write bursts (Count)
system.mem_ctrls1.dram.perBankRdBursts::2       367225                       # Per bank write bursts (Count)
system.mem_ctrls1.dram.perBankRdBursts::3       367250                       # Per bank write bursts (Count)
system.mem_ctrls1.dram.perBankRdBursts::4       367292                       # Per bank write bursts (Count)
system.mem_ctrls1.dram.perBankRdBursts::5       367280                       # Per bank write bursts (Count)
system.mem_ctrls1.dram.perBankRdBursts::6       367284                       # Per bank write bursts (Count)
system.mem_ctrls1.dram.perBankRdBursts::7       367312                       # Per bank write bursts (Count)
system.mem_ctrls1.dram.perBankRdBursts::8       367736                       # Per bank write bursts (Count)
system.mem_ctrls1.dram.perBankRdBursts::9       367770                       # Per bank write bursts (Count)
system.mem_ctrls1.dram.perBankRdBursts::10       367726                       # Per bank write bursts (Count)
system.mem_ctrls1.dram.perBankRdBursts::11       367728                       # Per bank write bursts (Count)
system.mem_ctrls1.dram.perBankRdBursts::12       367736                       # Per bank write bursts (Count)
system.mem_ctrls1.dram.perBankRdBursts::13       367740                       # Per bank write bursts (Count)
system.mem_ctrls1.dram.perBankRdBursts::14       367762                       # Per bank write bursts (Count)
system.mem_ctrls1.dram.perBankRdBursts::15       367412                       # Per bank write bursts (Count)
system.mem_ctrls1.dram.perBankWrBursts::0       156224                       # Per bank write bursts (Count)
system.mem_ctrls1.dram.perBankWrBursts::1       156228                       # Per bank write bursts (Count)
system.mem_ctrls1.dram.perBankWrBursts::2       156230                       # Per bank write bursts (Count)
system.mem_ctrls1.dram.perBankWrBursts::3       156263                       # Per bank write bursts (Count)
system.mem_ctrls1.dram.perBankWrBursts::4       156324                       # Per bank write bursts (Count)
system.mem_ctrls1.dram.perBankWrBursts::5       156338                       # Per bank write bursts (Count)
system.mem_ctrls1.dram.perBankWrBursts::6       156258                       # Per bank write bursts (Count)
system.mem_ctrls1.dram.perBankWrBursts::7       156297                       # Per bank write bursts (Count)
system.mem_ctrls1.dram.perBankWrBursts::8       156494                       # Per bank write bursts (Count)
system.mem_ctrls1.dram.perBankWrBursts::9       156506                       # Per bank write bursts (Count)
system.mem_ctrls1.dram.perBankWrBursts::10       156444                       # Per bank write bursts (Count)
system.mem_ctrls1.dram.perBankWrBursts::11       156422                       # Per bank write bursts (Count)
system.mem_ctrls1.dram.perBankWrBursts::12       156456                       # Per bank write bursts (Count)
system.mem_ctrls1.dram.perBankWrBursts::13       156482                       # Per bank write bursts (Count)
system.mem_ctrls1.dram.perBankWrBursts::14       156494                       # Per bank write bursts (Count)
system.mem_ctrls1.dram.perBankWrBursts::15       156504                       # Per bank write bursts (Count)
system.mem_ctrls1.dram.totQLat           112654532496                       # Total ticks spent queuing (Tick)
system.mem_ctrls1.dram.totBusLat          11759508000                       # Total ticks spent in databus transfers (Tick)
system.mem_ctrls1.dram.totMemAccLat      230249612496                       # Total ticks spent from burst creation until serviced by the DRAM (Tick)
system.mem_ctrls1.dram.avgQLat               19159.74                       # Average queueing delay per DRAM burst ((Tick/Count))
system.mem_ctrls1.dram.avgBusLat              2000.00                       # Average bus latency per DRAM burst ((Tick/Count))
system.mem_ctrls1.dram.avgMemAccLat          39159.74                       # Average memory access latency per DRAM burst ((Tick/Count))
system.mem_ctrls1.dram.readRowHits            2939873                       # Number of row buffer hits during reads (Count)
system.mem_ctrls1.dram.writeRowHits           2160725                       # Number of row buffer hits during writes (Count)
system.mem_ctrls1.dram.readRowHitRate           50.00                       # Row buffer hit rate for reads (Ratio)
system.mem_ctrls1.dram.writeRowHitRate          86.36                       # Row buffer hit rate for writes (Ratio)
system.mem_ctrls1.dram.bytesPerActivate::samples      3281120                       # Bytes accessed per row activation (Byte)
system.mem_ctrls1.dram.bytesPerActivate::mean    81.744946                       # Bytes accessed per row activation (Byte)
system.mem_ctrls1.dram.bytesPerActivate::gmean    72.161673                       # Bytes accessed per row activation (Byte)
system.mem_ctrls1.dram.bytesPerActivate::stdev    61.815504                       # Bytes accessed per row activation (Byte)
system.mem_ctrls1.dram.bytesPerActivate::0-63        18569      0.57%      0.57% # Bytes accessed per row activation (Byte)
system.mem_ctrls1.dram.bytesPerActivate::64-127      2970819     90.54%     91.11% # Bytes accessed per row activation (Byte)
system.mem_ctrls1.dram.bytesPerActivate::128-191        25334      0.77%     91.88% # Bytes accessed per row activation (Byte)
system.mem_ctrls1.dram.bytesPerActivate::192-255        89031      2.71%     94.59% # Bytes accessed per row activation (Byte)
system.mem_ctrls1.dram.bytesPerActivate::256-319       120931      3.69%     98.28% # Bytes accessed per row activation (Byte)
system.mem_ctrls1.dram.bytesPerActivate::320-383        34436      1.05%     99.33% # Bytes accessed per row activation (Byte)
system.mem_ctrls1.dram.bytesPerActivate::384-447         5411      0.16%     99.49% # Bytes accessed per row activation (Byte)
system.mem_ctrls1.dram.bytesPerActivate::448-511         4605      0.14%     99.63% # Bytes accessed per row activation (Byte)
system.mem_ctrls1.dram.bytesPerActivate::512-575        11984      0.37%    100.00% # Bytes accessed per row activation (Byte)
system.mem_ctrls1.dram.bytesPerActivate::total      3281120                       # Bytes accessed per row activation (Byte)
system.mem_ctrls1.dram.bytesRead            188152128                       # Total bytes read (Byte)
system.mem_ctrls1.dram.bytesWritten          80062848                       # Total bytes written (Byte)
system.mem_ctrls1.dram.avgRdBW             388.883292                       # Average DRAM read bandwidth in MiBytes/s ((Byte/Second))
system.mem_ctrls1.dram.avgWrBW             165.478351                       # Average DRAM write bandwidth in MiBytes/s ((Byte/Second))
system.mem_ctrls1.dram.peakBW                16000.00                       # Theoretical peak bandwidth in MiByte/s ((Byte/Second))
system.mem_ctrls1.dram.busUtil                   3.46                       # Data bus utilization in percentage (Ratio)
system.mem_ctrls1.dram.busUtilRead               2.43                       # Data bus utilization in percentage for reads (Ratio)
system.mem_ctrls1.dram.busUtilWrite              1.03                       # Data bus utilization in percentage for writes (Ratio)
system.mem_ctrls1.dram.pageHitRate              60.85                       # Row buffer hit rate, read and write combined (Ratio)
system.mem_ctrls1.dram.power_state.pwrStateResidencyTicks::UNDEFINED 483826721500                       # Cumulative time (in ticks) in various power states (Tick)
system.mem_ctrls1.dram.rank0.actEnergy              0                       # Energy for activate commands per rank (pJ) (Joule)
system.mem_ctrls1.dram.rank0.preEnergy              0                       # Energy for precharge commands per rank (pJ) (Joule)
system.mem_ctrls1.dram.rank0.readEnergy             0                       # Energy for read commands per rank (pJ) (Joule)
system.mem_ctrls1.dram.rank0.writeEnergy            0                       # Energy for write commands per rank (pJ) (Joule)
system.mem_ctrls1.dram.rank0.refreshEnergy            0                       # Energy for refresh commands per rank (pJ) (Joule)
system.mem_ctrls1.dram.rank0.actBackEnergy            0                       # Energy for active background per rank (pJ) (Joule)
system.mem_ctrls1.dram.rank0.preBackEnergy            0                       # Energy for precharge background per rank (pJ) (Joule)
system.mem_ctrls1.dram.rank0.actPowerDownEnergy            0                       # Energy for active power-down per rank (pJ) (Joule)
system.mem_ctrls1.dram.rank0.prePowerDownEnergy            0                       # Energy for precharge power-down per rank (pJ) (Joule)
system.mem_ctrls1.dram.rank0.selfRefreshEnergy            0                       # Energy for self refresh per rank (pJ) (Joule)
system.mem_ctrls1.dram.rank0.totalEnergy            0                       # Total energy per rank (pJ) (Joule)
system.mem_ctrls1.dram.rank0.averagePower            0                       # Core power per rank (mW) (Watt)
system.mem_ctrls1.dram.rank0.totalIdleTime            0                       # Total Idle time Per DRAM Rank (Tick)
system.mem_ctrls1.dram.rank0.pwrStateTime::IDLE 177154489500                       # Time in different power states (Tick)
system.mem_ctrls1.dram.rank0.pwrStateTime::REF  27391100000                       # Time in different power states (Tick)
system.mem_ctrls1.dram.rank0.pwrStateTime::SREF            0                       # Time in different power states (Tick)
system.mem_ctrls1.dram.rank0.pwrStateTime::PRE_PDN            0                       # Time in different power states (Tick)
system.mem_ctrls1.dram.rank0.pwrStateTime::ACT 279281132000                       # Time in different power states (Tick)
system.mem_ctrls1.dram.rank0.pwrStateTime::ACT_PDN            0                       # Time in different power states (Tick)
system.mem_ctrls1.power_state.pwrStateResidencyTicks::UNDEFINED 483826721500                       # Cumulative time (in ticks) in various power states (Tick)
system.membus.transDist::ReadResp             3504192                       # Transaction distribution (Count)
system.membus.transDist::WritebackDirty       2500808                       # Transaction distribution (Count)
system.membus.transDist::WritebackClean          1112                       # Transaction distribution (Count)
system.membus.transDist::CleanEvict           3376486                       # Transaction distribution (Count)
system.membus.transDist::ReadExReq            2375740                       # Transaction distribution (Count)
system.membus.transDist::ReadExResp           2375740                       # Transaction distribution (Count)
system.membus.transDist::ReadCleanReq            1614                       # Transaction distribution (Count)
system.membus.transDist::ReadSharedReq        3502578                       # Transaction distribution (Count)
system.membus.pktCount_system.cpu.icache.mem_side_port::system.mem_ctrls0.port         1753                       # Packet count per connected requestor and responder (Count)
system.membus.pktCount_system.cpu.icache.mem_side_port::system.mem_ctrls1.port         2587                       # Packet count per connected requestor and responder (Count)
system.membus.pktCount_system.cpu.icache.mem_side_port::total         4340                       # Packet count per connected requestor and responder (Count)
system.membus.pktCount_system.cpu.dcache.mem_side_port::system.mem_ctrls0.port      8817028                       # Packet count per connected requestor and responder (Count)
system.membus.pktCount_system.cpu.dcache.mem_side_port::system.mem_ctrls1.port      8816902                       # Packet count per connected requestor and responder (Count)
system.membus.pktCount_system.cpu.dcache.mem_side_port::total     17633930                       # Packet count per connected requestor and responder (Count)
system.membus.pktCount::total                17638270                       # Packet count per connected requestor and responder (Count)
system.membus.pktSize_system.cpu.icache.mem_side_port::system.mem_ctrls0.port        69440                       # Cumulative packet size per connected requestor and responder (Byte)
system.membus.pktSize_system.cpu.icache.mem_side_port::system.mem_ctrls1.port       105024                       # Cumulative packet size per connected requestor and responder (Byte)
system.membus.pktSize_system.cpu.icache.mem_side_port::total       174464                       # Cumulative packet size per connected requestor and responder (Byte)
system.membus.pktSize_system.cpu.dcache.mem_side_port::system.mem_ctrls0.port    268133632                       # Cumulative packet size per connected requestor and responder (Byte)
system.membus.pktSize_system.cpu.dcache.mem_side_port::system.mem_ctrls1.port    268130432                       # Cumulative packet size per connected requestor and responder (Byte)
system.membus.pktSize_system.cpu.dcache.mem_side_port::total    536264064                       # Cumulative packet size per connected requestor and responder (Byte)
system.membus.pktSize::total                536438528                       # Cumulative packet size per connected requestor and responder (Byte)
system.membus.snoops                                0                       # Total snoops (Count)
system.membus.snoopTraffic                          0                       # Total snoop traffic (Byte)
system.membus.snoopFanout::samples            5879932                       # Request fanout histogram (Count)
system.membus.snoopFanout::mean                     0                       # Request fanout histogram (Count)
system.membus.snoopFanout::stdev                    0                       # Request fanout histogram (Count)
system.membus.snoopFanout::underflows               0      0.00%      0.00% # Request fanout histogram (Count)
system.membus.snoopFanout::0                  5879932    100.00%    100.00% # Request fanout histogram (Count)
system.membus.snoopFanout::1                        0      0.00%    100.00% # Request fanout histogram (Count)
system.membus.snoopFanout::2                        0      0.00%    100.00% # Request fanout histogram (Count)
system.membus.snoopFanout::3                        0      0.00%    100.00% # Request fanout histogram (Count)
system.membus.snoopFanout::4                        0      0.00%    100.00% # Request fanout histogram (Count)
system.membus.snoopFanout::overflows                0      0.00%    100.00% # Request fanout histogram (Count)
system.membus.snoopFanout::min_value                0                       # Request fanout histogram (Count)
system.membus.snoopFanout::max_value                0                       # Request fanout histogram (Count)
system.membus.snoopFanout::total              5879932                       # Request fanout histogram (Count)
system.membus.power_state.pwrStateResidencyTicks::UNDEFINED 483826721500                       # Cumulative time (in ticks) in various power states (Tick)
system.membus.reqLayer2.occupancy         12871063250                       # Layer occupancy (ticks) (Tick)
system.membus.reqLayer2.utilization               0.0                       # Layer utilization (Ratio)
system.membus.reqLayer3.occupancy         12872814747                       # Layer occupancy (ticks) (Tick)
system.membus.reqLayer3.utilization               0.0                       # Layer utilization (Ratio)
system.membus.respLayer1.occupancy            8086750                       # Layer occupancy (ticks) (Tick)
system.membus.respLayer1.utilization              0.0                       # Layer utilization (Ratio)
system.membus.respLayer2.occupancy        29487730501                       # Layer occupancy (ticks) (Tick)
system.membus.respLayer2.utilization              0.1                       # Layer utilization (Ratio)
system.membus.snoop_filter.totRequests       11758338                       # Total number of requests made to the snoop filter. (Count)
system.membus.snoop_filter.hitSingleRequests      5878406                       # Number of requests hitting in the snoop filter with a single holder of the requested data. (Count)
system.membus.snoop_filter.hitMultiRequests            0                       # Number of requests hitting in the snoop filter with multiple (>1) holders of the requested data. (Count)
system.membus.snoop_filter.totSnoops                0                       # Total number of snoops made to the snoop filter. (Count)
system.membus.snoop_filter.hitSingleSnoops            0                       # Number of snoops hitting in the snoop filter with a single holder of the requested data. (Count)
system.membus.snoop_filter.hitMultiSnoops            0                       # Number of snoops hitting in the snoop filter with multiple (>1) holders of the requested data. (Count)
system.voltage_domain.voltage                       1                       # Voltage in Volts (Volt)
system.workload.inst.arm                            0                       # number of arm instructions executed (Count)
system.workload.inst.quiesce                        0                       # number of quiesce instructions executed (Count)

---------- End Simulation Statistics   ----------
