
---------- Begin Simulation Statistics ----------
simSeconds                                  11.866010                       # Number of seconds simulated (Second)
simTicks                                 11866009613000                       # Number of ticks simulated (Tick)
finalTick                                11866009613000                       # Number of ticks from beginning of simulation (restored from checkpoints and never reset) (Tick)
simFreq                                  1000000000000                       # The number of ticks per simulated second ((Tick/Second))
hostSeconds                                   1119.98                       # Real time elapsed on the host (Second)
hostTickRate                              10594840875                       # The number of ticks simulated per host second (ticks/s) ((Tick/Second))
hostMemory                                     674052                       # Number of bytes of host memory used (Byte)
simInsts                                    103237215                       # Number of instructions simulated (Count)
simOps                                      204441932                       # Number of ops (including micro ops) simulated (Count)
hostInstRate                                    92178                       # Simulator instruction rate (inst/s) ((Count/Second))
hostOpRate                                     182541                       # Simulator op (including micro ops) rate (op/s) ((Count/Second))
system.clk_domain.clock                          1000                       # Clock period in ticks (Tick)
system.cpu.numCycles                      47464038452                       # Number of cpu cycles simulated (Cycle)
system.cpu.numWorkItemsStarted                      0                       # Number of work items this cpu started (Count)
system.cpu.numWorkItemsCompleted                    0                       # Number of work items this cpu completed (Count)
system.cpu.exec_context.thread_0.numInsts    103237215                       # Number of instructions committed (Count)
system.cpu.exec_context.thread_0.numOps     204441932                       # Number of ops (including micro ops) committed (Count)
system.cpu.exec_context.thread_0.numIntAluAccesses    163432934                       # Number of integer alu accesses (Count)
system.cpu.exec_context.thread_0.numFpAluAccesses     83009918                       # Number of float alu accesses (Count)
system.cpu.exec_context.thread_0.numVecAluAccesses            0                       # Number of vector alu accesses (Count)
system.cpu.exec_context.thread_0.numCallsReturns         3786                       # Number of times a function call or return occured (Count)
system.cpu.exec_context.thread_0.numCondCtrlInsts     18043960                       # Number of instructions that are conditional controls (Count)
system.cpu.exec_context.thread_0.numIntInsts    163432934                       # Number of integer instructions (Count)
system.cpu.exec_context.thread_0.numFpInsts     83009918                       # Number of float instructions (Count)
system.cpu.exec_context.thread_0.numVecInsts            0                       # Number of vector instructions (Count)
system.cpu.exec_context.thread_0.numIntRegReads    179566089                       # Number of times the integer registers were read (Count)
system.cpu.exec_context.thread_0.numIntRegWrites     87318882                       # Number of times the integer registers were written (Count)
system.cpu.exec_context.thread_0.numFpRegReads     90013954                       # Number of times the floating registers were read (Count)
system.cpu.exec_context.thread_0.numFpRegWrites     65007391                       # Number of times the floating registers were written (Count)
system.cpu.exec_context.thread_0.numVecRegReads            0                       # Number of times the vector registers were read (Count)
system.cpu.exec_context.thread_0.numVecRegWrites            0                       # Number of times the vector registers were written (Count)
system.cpu.exec_context.thread_0.numVecPredRegReads            0                       # Number of times the predicate registers were read (Count)
system.cpu.exec_context.thread_0.numVecPredRegWrites            0                       # Number of times the predicate registers were written (Count)
system.cpu.exec_context.thread_0.numCCRegReads     96275405                       # Number of times the CC registers were read (Count)
system.cpu.exec_context.thread_0.numCCRegWrites     66171889                       # Number of times the CC registers were written (Count)
system.cpu.exec_context.thread_0.numMiscRegReads     84180004                       # Number of times the Misc registers were read (Count)
system.cpu.exec_context.thread_0.numMiscRegWrites           18                       # Number of times the Misc registers were written (Count)
system.cpu.exec_context.thread_0.numMemRefs     43074741                       # Number of memory refs (Count)
system.cpu.exec_context.thread_0.numLoadInsts     27054143                       # Number of load instructions (Count)
system.cpu.exec_context.thread_0.numStoreInsts     16020598                       # Number of store instructions (Count)
system.cpu.exec_context.thread_0.numIdleCycles     0.004000                       # Number of idle cycles (Cycle)
system.cpu.exec_context.thread_0.numBusyCycles 47464038451.996002                       # Number of busy cycles (Cycle)
system.cpu.exec_context.thread_0.notIdleFraction     1.000000                       # Percentage of non-idle cycles (Ratio)
system.cpu.exec_context.thread_0.idleFraction     0.000000                       # Percentage of idle cycles (Ratio)
system.cpu.exec_context.thread_0.numBranches     18053476                       # Number of branches fetched (Count)
system.cpu.exec_context.thread_0.statExecutedInstType::No_OpClass         2750      0.00%      0.00% # Class of executed instruction. (Count)
system.cpu.exec_context.thread_0.statExecutedInstType::IntAlu    126357055     61.81%     61.81% # Class of executed instruction. (Count)
system.cpu.exec_context.thread_0.statExecutedInstType::IntMult          202      0.00%     61.81% # Class of executed instruction. (Count)
system.cpu.exec_context.thread_0.statExecutedInstType::IntDiv         1555      0.00%     61.81% # Class of executed instruction. (Count)
system.cpu.exec_context.thread_0.statExecutedInstType::FloatAdd     13000561      6.36%     68.17% # Class of executed instruction. (Count)
system.cpu.exec_context.thread_0.statExecutedInstType::FloatCmp            0      0.00%     68.17% # Class of executed instruction. (Count)
system.cpu.exec_context.thread_0.statExecutedInstType::FloatCvt           32      0.00%     68.17% # Class of executed instruction. (Count)
system.cpu.exec_context.thread_0.statExecutedInstType::FloatMult            0      0.00%     68.17% # Class of executed instruction. (Count)
system.cpu.exec_context.thread_0.statExecutedInstType::FloatMultAcc            0      0.00%     68.17% # Class of executed instruction. (Count)
system.cpu.exec_context.thread_0.statExecutedInstType::FloatDiv            0      0.00%     68.17% # Class of executed instruction. (Count)
system.cpu.exec_context.thread_0.statExecutedInstType::FloatMisc            0      0.00%     68.17% # Class of executed instruction. (Count)
system.cpu.exec_context.thread_0.statExecutedInstType::FloatSqrt            0      0.00%     68.17% # Class of executed instruction. (Count)
system.cpu.exec_context.thread_0.statExecutedInstType::SimdAdd          328      0.00%     68.17% # Class of executed instruction. (Count)
system.cpu.exec_context.thread_0.statExecutedInstType::SimdAddAcc            0      0.00%     68.17% # Class of executed instruction. (Count)
system.cpu.exec_context.thread_0.statExecutedInstType::SimdAlu         1553      0.00%     68.17% # Class of executed instruction. (Count)
system.cpu.exec_context.thread_0.statExecutedInstType::SimdCmp            6      0.00%     68.17% # Class of executed instruction. (Count)
system.cpu.exec_context.thread_0.statExecutedInstType::SimdCvt         1210      0.00%     68.17% # Class of executed instruction. (Count)
system.cpu.exec_context.thread_0.statExecutedInstType::SimdMisc         1561      0.00%     68.17% # Class of executed instruction. (Count)
system.cpu.exec_context.thread_0.statExecutedInstType::SimdMult            0      0.00%     68.17% # Class of executed instruction. (Count)
system.cpu.exec_context.thread_0.statExecutedInstType::SimdMultAcc            0      0.00%     68.17% # Class of executed instruction. (Count)
system.cpu.exec_context.thread_0.statExecutedInstType::SimdShift           99      0.00%     68.17% # Class of executed instruction. (Count)
system.cpu.exec_context.thread_0.statExecutedInstType::SimdShiftAcc            0      0.00%     68.17% # Class of executed instruction. (Count)
system.cpu.exec_context.thread_0.statExecutedInstType::SimdDiv            0      0.00%     68.17% # Class of executed instruction. (Count)
system.cpu.exec_context.thread_0.statExecutedInstType::SimdSqrt            0      0.00%     68.17% # Class of executed instruction. (Count)
system.cpu.exec_context.thread_0.statExecutedInstType::SimdFloatAdd     13000126      6.36%     74.53% # Class of executed instruction. (Count)
system.cpu.exec_context.thread_0.statExecutedInstType::SimdFloatAlu            0      0.00%     74.53% # Class of executed instruction. (Count)
system.cpu.exec_context.thread_0.statExecutedInstType::SimdFloatCmp           16      0.00%     74.53% # Class of executed instruction. (Count)
system.cpu.exec_context.thread_0.statExecutedInstType::SimdFloatCvt      3000222      1.47%     76.00% # Class of executed instruction. (Count)
system.cpu.exec_context.thread_0.statExecutedInstType::SimdFloatDiv           11      0.00%     76.00% # Class of executed instruction. (Count)
system.cpu.exec_context.thread_0.statExecutedInstType::SimdFloatMisc            0      0.00%     76.00% # Class of executed instruction. (Count)
system.cpu.exec_context.thread_0.statExecutedInstType::SimdFloatMult      6000094      2.93%     78.93% # Class of executed instruction. (Count)
system.cpu.exec_context.thread_0.statExecutedInstType::SimdFloatMultAcc            0      0.00%     78.93% # Class of executed instruction. (Count)
system.cpu.exec_context.thread_0.statExecutedInstType::SimdFloatSqrt            0      0.00%     78.93% # Class of executed instruction. (Count)
system.cpu.exec_context.thread_0.statExecutedInstType::SimdReduceAdd            0      0.00%     78.93% # Class of executed instruction. (Count)
system.cpu.exec_context.thread_0.statExecutedInstType::SimdReduceAlu            0      0.00%     78.93% # Class of executed instruction. (Count)
system.cpu.exec_context.thread_0.statExecutedInstType::SimdReduceCmp            0      0.00%     78.93% # Class of executed instruction. (Count)
system.cpu.exec_context.thread_0.statExecutedInstType::SimdFloatReduceAdd            0      0.00%     78.93% # Class of executed instruction. (Count)
system.cpu.exec_context.thread_0.statExecutedInstType::SimdFloatReduceCmp            0      0.00%     78.93% # Class of executed instruction. (Count)
system.cpu.exec_context.thread_0.statExecutedInstType::SimdAes            0      0.00%     78.93% # Class of executed instruction. (Count)
system.cpu.exec_context.thread_0.statExecutedInstType::SimdAesMix            0      0.00%     78.93% # Class of executed instruction. (Count)
system.cpu.exec_context.thread_0.statExecutedInstType::SimdSha1Hash            0      0.00%     78.93% # Class of executed instruction. (Count)
system.cpu.exec_context.thread_0.statExecutedInstType::SimdSha1Hash2            0      0.00%     78.93% # Class of executed instruction. (Count)
system.cpu.exec_context.thread_0.statExecutedInstType::SimdSha256Hash            0      0.00%     78.93% # Class of executed instruction. (Count)
system.cpu.exec_context.thread_0.statExecutedInstType::SimdSha256Hash2            0      0.00%     78.93% # Class of executed instruction. (Count)
system.cpu.exec_context.thread_0.statExecutedInstType::SimdShaSigma2            0      0.00%     78.93% # Class of executed instruction. (Count)
system.cpu.exec_context.thread_0.statExecutedInstType::SimdShaSigma3            0      0.00%     78.93% # Class of executed instruction. (Count)
system.cpu.exec_context.thread_0.statExecutedInstType::SimdPredAlu            0      0.00%     78.93% # Class of executed instruction. (Count)
system.cpu.exec_context.thread_0.statExecutedInstType::MemRead        52222      0.03%     78.96% # Class of executed instruction. (Count)
system.cpu.exec_context.thread_0.statExecutedInstType::MemWrite      1018990      0.50%     79.45% # Class of executed instruction. (Count)
system.cpu.exec_context.thread_0.statExecutedInstType::FloatMemRead     27001921     13.21%     92.66% # Class of executed instruction. (Count)
system.cpu.exec_context.thread_0.statExecutedInstType::FloatMemWrite     15001608      7.34%    100.00% # Class of executed instruction. (Count)
system.cpu.exec_context.thread_0.statExecutedInstType::IprAccess            0      0.00%    100.00% # Class of executed instruction. (Count)
system.cpu.exec_context.thread_0.statExecutedInstType::InstPrefetch            0      0.00%    100.00% # Class of executed instruction. (Count)
system.cpu.exec_context.thread_0.statExecutedInstType::total    204442122                       # Class of executed instruction. (Count)
system.cpu.interrupts.clk_domain.clock           4000                       # Clock period in ticks (Tick)
system.cpu.mmu.dtb.rdAccesses                27054188                       # TLB accesses on read requests (Count)
system.cpu.mmu.dtb.wrAccesses                16020620                       # TLB accesses on write requests (Count)
system.cpu.mmu.dtb.rdMisses                     43220                       # TLB misses on read requests (Count)
system.cpu.mmu.dtb.wrMisses                     29353                       # TLB misses on write requests (Count)
system.cpu.mmu.dtb.walker.power_state.pwrStateResidencyTicks::UNDEFINED 11866009613000                       # Cumulative time (in ticks) in various power states (Tick)
system.cpu.mmu.itb.rdAccesses                       0                       # TLB accesses on read requests (Count)
system.cpu.mmu.itb.wrAccesses               149310003                       # TLB accesses on write requests (Count)
system.cpu.mmu.itb.rdMisses                         0                       # TLB misses on read requests (Count)
system.cpu.mmu.itb.wrMisses                       175                       # TLB misses on write requests (Count)
system.cpu.mmu.itb.walker.power_state.pwrStateResidencyTicks::UNDEFINED 11866009613000                       # Cumulative time (in ticks) in various power states (Tick)
system.cpu.power_state.pwrStateResidencyTicks::ON 11866009613000                       # Cumulative time (in ticks) in various power states (Tick)
system.cpu.thread_0.numInsts                        0                       # Number of Instructions committed (Count)
system.cpu.thread_0.numOps                          0                       # Number of Ops committed (Count)
system.cpu.thread_0.numMemRefs                      0                       # Number of Memory References (Count)
system.cpu.workload.numSyscalls                   129                       # Number of system calls (Count)
system.cpu_clk_domain.clock                       250                       # Clock period in ticks (Tick)
system.cpu_voltage_domain.voltage                   1                       # Voltage in Volts (Volt)
system.mem_ctrls0.avgPriority_cpu.inst::samples     12483.00                       # Average QoS priority value for accepted requests (Count)
system.mem_ctrls0.avgPriority_cpu.data::samples   1634727.00                       # Average QoS priority value for accepted requests (Count)
system.mem_ctrls0.priorityMinLatency     0.000000020000                       # per QoS priority minimum request to response latency (Second)
system.mem_ctrls0.priorityMaxLatency     0.030257197000                       # per QoS priority maximum request to response latency (Second)
system.mem_ctrls0.numReadWriteTurnArounds        14114                       # Number of turnarounds from READ to WRITE (Count)
system.mem_ctrls0.numWriteReadTurnArounds        14114                       # Number of turnarounds from WRITE to READ (Count)
system.mem_ctrls0.numStayReadState            6842527                       # Number of times bus staying in READ state (Count)
system.mem_ctrls0.numStayWriteState            239969                       # Number of times bus staying in WRITE state (Count)
system.mem_ctrls0.readReqs                    1393567                       # Number of read requests accepted (Count)
system.mem_ctrls0.writeReqs                   1002756                       # Number of write requests accepted (Count)
system.mem_ctrls0.readBursts                  1393568                       # Number of controller read bursts, including those serviced by the write queue (Count)
system.mem_ctrls0.writeBursts                 1002756                       # Number of controller write bursts, including those merged in the write queue (Count)
system.mem_ctrls0.servicedByWrQ                   430                       # Number of controller read bursts serviced by the write queue (Count)
system.mem_ctrls0.mergedWrBursts               748684                       # Number of controller write bursts merged with an existing one (Count)
system.mem_ctrls0.neitherReadNorWriteReqs            0                       # Number of requests that are neither read nor write (Count)
system.mem_ctrls0.avgRdQLen                      1.00                       # Average read queue length when enqueuing ((Count/Tick))
system.mem_ctrls0.avgWrQLen                     23.37                       # Average write queue length when enqueuing ((Count/Tick))
system.mem_ctrls0.numRdRetry                        0                       # Number of times read queue was full causing retry (Count)
system.mem_ctrls0.numWrRetry                        0                       # Number of times write queue was full causing retry (Count)
system.mem_ctrls0.readPktSize::0                  554                       # Read request sizes (log2) (Count)
system.mem_ctrls0.readPktSize::1                  174                       # Read request sizes (log2) (Count)
system.mem_ctrls0.readPktSize::2                  330                       # Read request sizes (log2) (Count)
system.mem_ctrls0.readPktSize::3              1392510                       # Read request sizes (log2) (Count)
system.mem_ctrls0.readPktSize::4                    0                       # Read request sizes (log2) (Count)
system.mem_ctrls0.readPktSize::5                    0                       # Read request sizes (log2) (Count)
system.mem_ctrls0.readPktSize::6                    0                       # Read request sizes (log2) (Count)
system.mem_ctrls0.writePktSize::0                 126                       # Write request sizes (log2) (Count)
system.mem_ctrls0.writePktSize::1                   0                       # Write request sizes (log2) (Count)
system.mem_ctrls0.writePktSize::2                 109                       # Write request sizes (log2) (Count)
system.mem_ctrls0.writePktSize::3             1002521                       # Write request sizes (log2) (Count)
system.mem_ctrls0.writePktSize::4                   0                       # Write request sizes (log2) (Count)
system.mem_ctrls0.writePktSize::5                   0                       # Write request sizes (log2) (Count)
system.mem_ctrls0.writePktSize::6                   0                       # Write request sizes (log2) (Count)
system.mem_ctrls0.rdQLenPdf::0                1393137                       # What read queue length does an incoming req see (Count)
system.mem_ctrls0.rdQLenPdf::1                      1                       # What read queue length does an incoming req see (Count)
system.mem_ctrls0.rdQLenPdf::2                      0                       # What read queue length does an incoming req see (Count)
system.mem_ctrls0.rdQLenPdf::3                      0                       # What read queue length does an incoming req see (Count)
system.mem_ctrls0.rdQLenPdf::4                      0                       # What read queue length does an incoming req see (Count)
system.mem_ctrls0.rdQLenPdf::5                      0                       # What read queue length does an incoming req see (Count)
system.mem_ctrls0.rdQLenPdf::6                      0                       # What read queue length does an incoming req see (Count)
system.mem_ctrls0.rdQLenPdf::7                      0                       # What read queue length does an incoming req see (Count)
system.mem_ctrls0.rdQLenPdf::8                      0                       # What read queue length does an incoming req see (Count)
system.mem_ctrls0.rdQLenPdf::9                      0                       # What read queue length does an incoming req see (Count)
system.mem_ctrls0.rdQLenPdf::10                     0                       # What read queue length does an incoming req see (Count)
system.mem_ctrls0.rdQLenPdf::11                     0                       # What read queue length does an incoming req see (Count)
system.mem_ctrls0.rdQLenPdf::12                     0                       # What read queue length does an incoming req see (Count)
system.mem_ctrls0.rdQLenPdf::13                     0                       # What read queue length does an incoming req see (Count)
system.mem_ctrls0.rdQLenPdf::14                     0                       # What read queue length does an incoming req see (Count)
system.mem_ctrls0.rdQLenPdf::15                     0                       # What read queue length does an incoming req see (Count)
system.mem_ctrls0.rdQLenPdf::16                     0                       # What read queue length does an incoming req see (Count)
system.mem_ctrls0.rdQLenPdf::17                     0                       # What read queue length does an incoming req see (Count)
system.mem_ctrls0.rdQLenPdf::18                     0                       # What read queue length does an incoming req see (Count)
system.mem_ctrls0.rdQLenPdf::19                     0                       # What read queue length does an incoming req see (Count)
system.mem_ctrls0.rdQLenPdf::20                     0                       # What read queue length does an incoming req see (Count)
system.mem_ctrls0.rdQLenPdf::21                     0                       # What read queue length does an incoming req see (Count)
system.mem_ctrls0.rdQLenPdf::22                     0                       # What read queue length does an incoming req see (Count)
system.mem_ctrls0.rdQLenPdf::23                     0                       # What read queue length does an incoming req see (Count)
system.mem_ctrls0.rdQLenPdf::24                     0                       # What read queue length does an incoming req see (Count)
system.mem_ctrls0.rdQLenPdf::25                     0                       # What read queue length does an incoming req see (Count)
system.mem_ctrls0.rdQLenPdf::26                     0                       # What read queue length does an incoming req see (Count)
system.mem_ctrls0.rdQLenPdf::27                     0                       # What read queue length does an incoming req see (Count)
system.mem_ctrls0.rdQLenPdf::28                     0                       # What read queue length does an incoming req see (Count)
system.mem_ctrls0.rdQLenPdf::29                     0                       # What read queue length does an incoming req see (Count)
system.mem_ctrls0.rdQLenPdf::30                     0                       # What read queue length does an incoming req see (Count)
system.mem_ctrls0.rdQLenPdf::31                     0                       # What read queue length does an incoming req see (Count)
system.mem_ctrls0.rdQLenPdf::32                     0                       # What read queue length does an incoming req see (Count)
system.mem_ctrls0.rdQLenPdf::33                     0                       # What read queue length does an incoming req see (Count)
system.mem_ctrls0.rdQLenPdf::34                     0                       # What read queue length does an incoming req see (Count)
system.mem_ctrls0.rdQLenPdf::35                     0                       # What read queue length does an incoming req see (Count)
system.mem_ctrls0.rdQLenPdf::36                     0                       # What read queue length does an incoming req see (Count)
system.mem_ctrls0.rdQLenPdf::37                     0                       # What read queue length does an incoming req see (Count)
system.mem_ctrls0.rdQLenPdf::38                     0                       # What read queue length does an incoming req see (Count)
system.mem_ctrls0.rdQLenPdf::39                     0                       # What read queue length does an incoming req see (Count)
system.mem_ctrls0.rdQLenPdf::40                     0                       # What read queue length does an incoming req see (Count)
system.mem_ctrls0.rdQLenPdf::41                     0                       # What read queue length does an incoming req see (Count)
system.mem_ctrls0.rdQLenPdf::42                     0                       # What read queue length does an incoming req see (Count)
system.mem_ctrls0.rdQLenPdf::43                     0                       # What read queue length does an incoming req see (Count)
system.mem_ctrls0.rdQLenPdf::44                     0                       # What read queue length does an incoming req see (Count)
system.mem_ctrls0.rdQLenPdf::45                     0                       # What read queue length does an incoming req see (Count)
system.mem_ctrls0.rdQLenPdf::46                     0                       # What read queue length does an incoming req see (Count)
system.mem_ctrls0.rdQLenPdf::47                     0                       # What read queue length does an incoming req see (Count)
system.mem_ctrls0.rdQLenPdf::48                     0                       # What read queue length does an incoming req see (Count)
system.mem_ctrls0.rdQLenPdf::49                     0                       # What read queue length does an incoming req see (Count)
system.mem_ctrls0.rdQLenPdf::50                     0                       # What read queue length does an incoming req see (Count)
system.mem_ctrls0.rdQLenPdf::51                     0                       # What read queue length does an incoming req see (Count)
system.mem_ctrls0.rdQLenPdf::52                     0                       # What read queue length does an incoming req see (Count)
system.mem_ctrls0.rdQLenPdf::53                     0                       # What read queue length does an incoming req see (Count)
system.mem_ctrls0.rdQLenPdf::54                     0                       # What read queue length does an incoming req see (Count)
system.mem_ctrls0.rdQLenPdf::55                     0                       # What read queue length does an incoming req see (Count)
system.mem_ctrls0.rdQLenPdf::56                     0                       # What read queue length does an incoming req see (Count)
system.mem_ctrls0.rdQLenPdf::57                     0                       # What read queue length does an incoming req see (Count)
system.mem_ctrls0.rdQLenPdf::58                     0                       # What read queue length does an incoming req see (Count)
system.mem_ctrls0.rdQLenPdf::59                     0                       # What read queue length does an incoming req see (Count)
system.mem_ctrls0.rdQLenPdf::60                     0                       # What read queue length does an incoming req see (Count)
system.mem_ctrls0.rdQLenPdf::61                     0                       # What read queue length does an incoming req see (Count)
system.mem_ctrls0.rdQLenPdf::62                     0                       # What read queue length does an incoming req see (Count)
system.mem_ctrls0.rdQLenPdf::63                     0                       # What read queue length does an incoming req see (Count)
system.mem_ctrls0.wrQLenPdf::0                      1                       # What write queue length does an incoming req see (Count)
system.mem_ctrls0.wrQLenPdf::1                      1                       # What write queue length does an incoming req see (Count)
system.mem_ctrls0.wrQLenPdf::2                      1                       # What write queue length does an incoming req see (Count)
system.mem_ctrls0.wrQLenPdf::3                      1                       # What write queue length does an incoming req see (Count)
system.mem_ctrls0.wrQLenPdf::4                      1                       # What write queue length does an incoming req see (Count)
system.mem_ctrls0.wrQLenPdf::5                      1                       # What write queue length does an incoming req see (Count)
system.mem_ctrls0.wrQLenPdf::6                      1                       # What write queue length does an incoming req see (Count)
system.mem_ctrls0.wrQLenPdf::7                      1                       # What write queue length does an incoming req see (Count)
system.mem_ctrls0.wrQLenPdf::8                      1                       # What write queue length does an incoming req see (Count)
system.mem_ctrls0.wrQLenPdf::9                      1                       # What write queue length does an incoming req see (Count)
system.mem_ctrls0.wrQLenPdf::10                     1                       # What write queue length does an incoming req see (Count)
system.mem_ctrls0.wrQLenPdf::11                     1                       # What write queue length does an incoming req see (Count)
system.mem_ctrls0.wrQLenPdf::12                     1                       # What write queue length does an incoming req see (Count)
system.mem_ctrls0.wrQLenPdf::13                     1                       # What write queue length does an incoming req see (Count)
system.mem_ctrls0.wrQLenPdf::14                     1                       # What write queue length does an incoming req see (Count)
system.mem_ctrls0.wrQLenPdf::15                 14115                       # What write queue length does an incoming req see (Count)
system.mem_ctrls0.wrQLenPdf::16                 14115                       # What write queue length does an incoming req see (Count)
system.mem_ctrls0.wrQLenPdf::17                 14115                       # What write queue length does an incoming req see (Count)
system.mem_ctrls0.wrQLenPdf::18                 14115                       # What write queue length does an incoming req see (Count)
system.mem_ctrls0.wrQLenPdf::19                 14115                       # What write queue length does an incoming req see (Count)
system.mem_ctrls0.wrQLenPdf::20                 14114                       # What write queue length does an incoming req see (Count)
system.mem_ctrls0.wrQLenPdf::21                 14114                       # What write queue length does an incoming req see (Count)
system.mem_ctrls0.wrQLenPdf::22                 14114                       # What write queue length does an incoming req see (Count)
system.mem_ctrls0.wrQLenPdf::23                 14114                       # What write queue length does an incoming req see (Count)
system.mem_ctrls0.wrQLenPdf::24                 14114                       # What write queue length does an incoming req see (Count)
system.mem_ctrls0.wrQLenPdf::25                 14114                       # What write queue length does an incoming req see (Count)
system.mem_ctrls0.wrQLenPdf::26                 14114                       # What write queue length does an incoming req see (Count)
system.mem_ctrls0.wrQLenPdf::27                 14114                       # What write queue length does an incoming req see (Count)
system.mem_ctrls0.wrQLenPdf::28                 14114                       # What write queue length does an incoming req see (Count)
system.mem_ctrls0.wrQLenPdf::29                 14114                       # What write queue length does an incoming req see (Count)
system.mem_ctrls0.wrQLenPdf::30                 14114                       # What write queue length does an incoming req see (Count)
system.mem_ctrls0.wrQLenPdf::31                 14114                       # What write queue length does an incoming req see (Count)
system.mem_ctrls0.wrQLenPdf::32                 14114                       # What write queue length does an incoming req see (Count)
system.mem_ctrls0.wrQLenPdf::33                     0                       # What write queue length does an incoming req see (Count)
system.mem_ctrls0.wrQLenPdf::34                     0                       # What write queue length does an incoming req see (Count)
system.mem_ctrls0.wrQLenPdf::35                     0                       # What write queue length does an incoming req see (Count)
system.mem_ctrls0.wrQLenPdf::36                     0                       # What write queue length does an incoming req see (Count)
system.mem_ctrls0.wrQLenPdf::37                     0                       # What write queue length does an incoming req see (Count)
system.mem_ctrls0.wrQLenPdf::38                     0                       # What write queue length does an incoming req see (Count)
system.mem_ctrls0.wrQLenPdf::39                     0                       # What write queue length does an incoming req see (Count)
system.mem_ctrls0.wrQLenPdf::40                     0                       # What write queue length does an incoming req see (Count)
system.mem_ctrls0.wrQLenPdf::41                     0                       # What write queue length does an incoming req see (Count)
system.mem_ctrls0.wrQLenPdf::42                     0                       # What write queue length does an incoming req see (Count)
system.mem_ctrls0.wrQLenPdf::43                     0                       # What write queue length does an incoming req see (Count)
system.mem_ctrls0.wrQLenPdf::44                     0                       # What write queue length does an incoming req see (Count)
system.mem_ctrls0.wrQLenPdf::45                     0                       # What write queue length does an incoming req see (Count)
system.mem_ctrls0.wrQLenPdf::46                     0                       # What write queue length does an incoming req see (Count)
system.mem_ctrls0.wrQLenPdf::47                     0                       # What write queue length does an incoming req see (Count)
system.mem_ctrls0.wrQLenPdf::48                     0                       # What write queue length does an incoming req see (Count)
system.mem_ctrls0.wrQLenPdf::49                     0                       # What write queue length does an incoming req see (Count)
system.mem_ctrls0.wrQLenPdf::50                     0                       # What write queue length does an incoming req see (Count)
system.mem_ctrls0.wrQLenPdf::51                     0                       # What write queue length does an incoming req see (Count)
system.mem_ctrls0.wrQLenPdf::52                     0                       # What write queue length does an incoming req see (Count)
system.mem_ctrls0.wrQLenPdf::53                     0                       # What write queue length does an incoming req see (Count)
system.mem_ctrls0.wrQLenPdf::54                     0                       # What write queue length does an incoming req see (Count)
system.mem_ctrls0.wrQLenPdf::55                     0                       # What write queue length does an incoming req see (Count)
system.mem_ctrls0.wrQLenPdf::56                     0                       # What write queue length does an incoming req see (Count)
system.mem_ctrls0.wrQLenPdf::57                     0                       # What write queue length does an incoming req see (Count)
system.mem_ctrls0.wrQLenPdf::58                     0                       # What write queue length does an incoming req see (Count)
system.mem_ctrls0.wrQLenPdf::59                     0                       # What write queue length does an incoming req see (Count)
system.mem_ctrls0.wrQLenPdf::60                     0                       # What write queue length does an incoming req see (Count)
system.mem_ctrls0.wrQLenPdf::61                     0                       # What write queue length does an incoming req see (Count)
system.mem_ctrls0.wrQLenPdf::62                     0                       # What write queue length does an incoming req see (Count)
system.mem_ctrls0.wrQLenPdf::63                     0                       # What write queue length does an incoming req see (Count)
system.mem_ctrls0.rdPerTurnAround::samples        14114                       # Reads before turning the bus around for writes (Count)
system.mem_ctrls0.rdPerTurnAround::mean     84.983704                       # Reads before turning the bus around for writes (Count)
system.mem_ctrls0.rdPerTurnAround::stdev    81.491412                       # Reads before turning the bus around for writes (Count)
system.mem_ctrls0.rdPerTurnAround::0-127         8837     62.61%     62.61% # Reads before turning the bus around for writes (Count)
system.mem_ctrls0.rdPerTurnAround::128-255         5273     37.36%     99.97% # Reads before turning the bus around for writes (Count)
system.mem_ctrls0.rdPerTurnAround::384-511            1      0.01%     99.98% # Reads before turning the bus around for writes (Count)
system.mem_ctrls0.rdPerTurnAround::1536-1663            1      0.01%     99.99% # Reads before turning the bus around for writes (Count)
system.mem_ctrls0.rdPerTurnAround::2688-2815            1      0.01%     99.99% # Reads before turning the bus around for writes (Count)
system.mem_ctrls0.rdPerTurnAround::6784-6911            1      0.01%    100.00% # Reads before turning the bus around for writes (Count)
system.mem_ctrls0.rdPerTurnAround::total        14114                       # Reads before turning the bus around for writes (Count)
system.mem_ctrls0.wrPerTurnAround::samples        14114                       # Writes before turning the bus around for reads (Count)
system.mem_ctrls0.wrPerTurnAround::mean            18                       # Writes before turning the bus around for reads (Count)
system.mem_ctrls0.wrPerTurnAround::gmean    18.000000                       # Writes before turning the bus around for reads (Count)
system.mem_ctrls0.wrPerTurnAround::18           14114    100.00%    100.00% # Writes before turning the bus around for reads (Count)
system.mem_ctrls0.wrPerTurnAround::total        14114                       # Writes before turning the bus around for reads (Count)
system.mem_ctrls0.bytesReadWrQ                  13760                       # Total number of bytes read from write queue (Byte)
system.mem_ctrls0.bytesReadSys               11142300                       # Total read bytes from the system interface side (Byte)
system.mem_ctrls0.bytesWrittenSys             8020730                       # Total written bytes from the system interface side (Byte)
system.mem_ctrls0.avgRdBWSys             939009.85785423                       # Average system read bandwidth in Byte/s ((Byte/Second))
system.mem_ctrls0.avgWrBWSys             675941.64016290                       # Average system write bandwidth in Byte/s ((Byte/Second))
system.mem_ctrls0.totGap                 11865995405000                       # Total gap between requests (Tick)
system.mem_ctrls0.avgGap                   4951751.25                       # Average gap between requests ((Tick/Count))
system.mem_ctrls0.requestorReadBytes::cpu.inst        99864                       # Per-requestor bytes read from memory (Byte)
system.mem_ctrls0.requestorReadBytes::cpu.data     11039128                       # Per-requestor bytes read from memory (Byte)
system.mem_ctrls0.requestorWriteBytes::cpu.data      2032404                       # Per-requestor bytes write to memory (Byte)
system.mem_ctrls0.requestorReadRate::cpu.inst 8415.971607725007                       # Per-requestor bytes read from memory rate ((Byte/Second))
system.mem_ctrls0.requestorReadRate::cpu.data 930315.106765622739                       # Per-requestor bytes read from memory rate ((Byte/Second))
system.mem_ctrls0.requestorWriteRate::cpu.data 171279.483692088601                       # Per-requestor bytes write to memory rate ((Byte/Second))
system.mem_ctrls0.requestorReadAccesses::cpu.inst        12483                       # Per-requestor read serviced memory accesses (Count)
system.mem_ctrls0.requestorReadAccesses::cpu.data      1381085                       # Per-requestor read serviced memory accesses (Count)
system.mem_ctrls0.requestorWriteAccesses::cpu.data      1002756                       # Per-requestor write serviced memory accesses (Count)
system.mem_ctrls0.requestorReadTotalLat::cpu.inst    443390000                       # Per-requestor read total memory access latency (Tick)
system.mem_ctrls0.requestorReadTotalLat::cpu.data  49564326000                       # Per-requestor read total memory access latency (Tick)
system.mem_ctrls0.requestorWriteTotalLat::cpu.data 233779135213000                       # Per-requestor write total memory access latency (Tick)
system.mem_ctrls0.requestorReadAvgLat::cpu.inst     35519.51                       # Per-requestor read average memory access latency ((Tick/Count))
system.mem_ctrls0.requestorReadAvgLat::cpu.data     35887.96                       # Per-requestor read average memory access latency ((Tick/Count))
system.mem_ctrls0.requestorWriteAvgLat::cpu.data 233136610.71                       # Per-requestor write average memory access latency ((Tick/Count))
system.mem_ctrls0.dram.bytesRead::cpu.inst        99864                       # Number of bytes read from this memory (Byte)
system.mem_ctrls0.dram.bytesRead::cpu.data     11042436                       # Number of bytes read from this memory (Byte)
system.mem_ctrls0.dram.bytesRead::total      11142300                       # Number of bytes read from this memory (Byte)
system.mem_ctrls0.dram.bytesInstRead::cpu.inst        99864                       # Number of instructions bytes read from this memory (Byte)
system.mem_ctrls0.dram.bytesInstRead::total        99864                       # Number of instructions bytes read from this memory (Byte)
system.mem_ctrls0.dram.bytesWritten::cpu.data      8020730                       # Number of bytes written to this memory (Byte)
system.mem_ctrls0.dram.bytesWritten::total      8020730                       # Number of bytes written to this memory (Byte)
system.mem_ctrls0.dram.numReads::cpu.inst        12483                       # Number of read requests responded to by this memory (Count)
system.mem_ctrls0.dram.numReads::cpu.data      1381084                       # Number of read requests responded to by this memory (Count)
system.mem_ctrls0.dram.numReads::total        1393567                       # Number of read requests responded to by this memory (Count)
system.mem_ctrls0.dram.numWrites::cpu.data      1002756                       # Number of write requests responded to by this memory (Count)
system.mem_ctrls0.dram.numWrites::total       1002756                       # Number of write requests responded to by this memory (Count)
system.mem_ctrls0.dram.bwRead::cpu.inst          8416                       # Total read bandwidth from this memory ((Byte/Second))
system.mem_ctrls0.dram.bwRead::cpu.data        930594                       # Total read bandwidth from this memory ((Byte/Second))
system.mem_ctrls0.dram.bwRead::total           939010                       # Total read bandwidth from this memory ((Byte/Second))
system.mem_ctrls0.dram.bwInstRead::cpu.inst         8416                       # Instruction read bandwidth from this memory ((Byte/Second))
system.mem_ctrls0.dram.bwInstRead::total         8416                       # Instruction read bandwidth from this memory ((Byte/Second))
system.mem_ctrls0.dram.bwWrite::cpu.data       675942                       # Write bandwidth from this memory ((Byte/Second))
system.mem_ctrls0.dram.bwWrite::total          675942                       # Write bandwidth from this memory ((Byte/Second))
system.mem_ctrls0.dram.bwTotal::cpu.inst         8416                       # Total bandwidth to/from this memory ((Byte/Second))
system.mem_ctrls0.dram.bwTotal::cpu.data      1606536                       # Total bandwidth to/from this memory ((Byte/Second))
system.mem_ctrls0.dram.bwTotal::total         1614951                       # Total bandwidth to/from this memory ((Byte/Second))
system.mem_ctrls0.dram.readBursts             1393138                       # Number of DRAM read bursts (Count)
system.mem_ctrls0.dram.writeBursts             254052                       # Number of DRAM write bursts (Count)
system.mem_ctrls0.dram.perBankRdBursts::0        85638                       # Per bank write bursts (Count)
system.mem_ctrls0.dram.perBankRdBursts::1        87001                       # Per bank write bursts (Count)
system.mem_ctrls0.dram.perBankRdBursts::2        86604                       # Per bank write bursts (Count)
system.mem_ctrls0.dram.perBankRdBursts::3        86425                       # Per bank write bursts (Count)
system.mem_ctrls0.dram.perBankRdBursts::4        86400                       # Per bank write bursts (Count)
system.mem_ctrls0.dram.perBankRdBursts::5        88531                       # Per bank write bursts (Count)
system.mem_ctrls0.dram.perBankRdBursts::6        86477                       # Per bank write bursts (Count)
system.mem_ctrls0.dram.perBankRdBursts::7        86693                       # Per bank write bursts (Count)
system.mem_ctrls0.dram.perBankRdBursts::8        89206                       # Per bank write bursts (Count)
system.mem_ctrls0.dram.perBankRdBursts::9        86317                       # Per bank write bursts (Count)
system.mem_ctrls0.dram.perBankRdBursts::10        85584                       # Per bank write bursts (Count)
system.mem_ctrls0.dram.perBankRdBursts::11        87628                       # Per bank write bursts (Count)
system.mem_ctrls0.dram.perBankRdBursts::12        88313                       # Per bank write bursts (Count)
system.mem_ctrls0.dram.perBankRdBursts::13        86700                       # Per bank write bursts (Count)
system.mem_ctrls0.dram.perBankRdBursts::14        87238                       # Per bank write bursts (Count)
system.mem_ctrls0.dram.perBankRdBursts::15        88383                       # Per bank write bursts (Count)
system.mem_ctrls0.dram.perBankWrBursts::0        15737                       # Per bank write bursts (Count)
system.mem_ctrls0.dram.perBankWrBursts::1        15959                       # Per bank write bursts (Count)
system.mem_ctrls0.dram.perBankWrBursts::2        15996                       # Per bank write bursts (Count)
system.mem_ctrls0.dram.perBankWrBursts::3        15994                       # Per bank write bursts (Count)
system.mem_ctrls0.dram.perBankWrBursts::4        15995                       # Per bank write bursts (Count)
system.mem_ctrls0.dram.perBankWrBursts::5        16021                       # Per bank write bursts (Count)
system.mem_ctrls0.dram.perBankWrBursts::6        15993                       # Per bank write bursts (Count)
system.mem_ctrls0.dram.perBankWrBursts::7        15997                       # Per bank write bursts (Count)
system.mem_ctrls0.dram.perBankWrBursts::8        16018                       # Per bank write bursts (Count)
system.mem_ctrls0.dram.perBankWrBursts::9        15909                       # Per bank write bursts (Count)
system.mem_ctrls0.dram.perBankWrBursts::10        15748                       # Per bank write bursts (Count)
system.mem_ctrls0.dram.perBankWrBursts::11        15741                       # Per bank write bursts (Count)
system.mem_ctrls0.dram.perBankWrBursts::12        15736                       # Per bank write bursts (Count)
system.mem_ctrls0.dram.perBankWrBursts::13        15735                       # Per bank write bursts (Count)
system.mem_ctrls0.dram.perBankWrBursts::14        15738                       # Per bank write bursts (Count)
system.mem_ctrls0.dram.perBankWrBursts::15        15735                       # Per bank write bursts (Count)
system.mem_ctrls0.dram.totQLat            22144956000                       # Total ticks spent queuing (Tick)
system.mem_ctrls0.dram.totBusLat           2786276000                       # Total ticks spent in databus transfers (Tick)
system.mem_ctrls0.dram.totMemAccLat       50007716000                       # Total ticks spent from burst creation until serviced by the DRAM (Tick)
system.mem_ctrls0.dram.avgQLat               15895.74                       # Average queueing delay per DRAM burst ((Tick/Count))
system.mem_ctrls0.dram.avgBusLat              2000.00                       # Average bus latency per DRAM burst ((Tick/Count))
system.mem_ctrls0.dram.avgMemAccLat          35895.74                       # Average memory access latency per DRAM burst ((Tick/Count))
system.mem_ctrls0.dram.readRowHits                540                       # Number of row buffer hits during reads (Count)
system.mem_ctrls0.dram.writeRowHits            216801                       # Number of row buffer hits during writes (Count)
system.mem_ctrls0.dram.readRowHitRate            0.04                       # Row buffer hit rate for reads (Ratio)
system.mem_ctrls0.dram.writeRowHitRate          85.34                       # Row buffer hit rate for writes (Ratio)
system.mem_ctrls0.dram.bytesPerActivate::samples      1429849                       # Bytes accessed per row activation (Byte)
system.mem_ctrls0.dram.bytesPerActivate::mean    36.864088                       # Bytes accessed per row activation (Byte)
system.mem_ctrls0.dram.bytesPerActivate::gmean    33.515766                       # Bytes accessed per row activation (Byte)
system.mem_ctrls0.dram.bytesPerActivate::stdev    32.999878                       # Bytes accessed per row activation (Byte)
system.mem_ctrls0.dram.bytesPerActivate::32-63      1395046     97.57%     97.57% # Bytes accessed per row activation (Byte)
system.mem_ctrls0.dram.bytesPerActivate::64-95         2312      0.16%     97.73% # Bytes accessed per row activation (Byte)
system.mem_ctrls0.dram.bytesPerActivate::96-127         1452      0.10%     97.83% # Bytes accessed per row activation (Byte)
system.mem_ctrls0.dram.bytesPerActivate::128-159         1241      0.09%     97.92% # Bytes accessed per row activation (Byte)
system.mem_ctrls0.dram.bytesPerActivate::160-191         4354      0.30%     98.22% # Bytes accessed per row activation (Byte)
system.mem_ctrls0.dram.bytesPerActivate::192-223         1068      0.07%     98.30% # Bytes accessed per row activation (Byte)
system.mem_ctrls0.dram.bytesPerActivate::224-255         2670      0.19%     98.48% # Bytes accessed per row activation (Byte)
system.mem_ctrls0.dram.bytesPerActivate::256-287        10453      0.73%     99.21% # Bytes accessed per row activation (Byte)
system.mem_ctrls0.dram.bytesPerActivate::288-319         4866      0.34%     99.55% # Bytes accessed per row activation (Byte)
system.mem_ctrls0.dram.bytesPerActivate::320-351         6359      0.44%    100.00% # Bytes accessed per row activation (Byte)
system.mem_ctrls0.dram.bytesPerActivate::352-383           20      0.00%    100.00% # Bytes accessed per row activation (Byte)
system.mem_ctrls0.dram.bytesPerActivate::384-415            4      0.00%    100.00% # Bytes accessed per row activation (Byte)
system.mem_ctrls0.dram.bytesPerActivate::416-447            1      0.00%    100.00% # Bytes accessed per row activation (Byte)
system.mem_ctrls0.dram.bytesPerActivate::448-479            2      0.00%    100.00% # Bytes accessed per row activation (Byte)
system.mem_ctrls0.dram.bytesPerActivate::480-511            1      0.00%    100.00% # Bytes accessed per row activation (Byte)
system.mem_ctrls0.dram.bytesPerActivate::total      1429849                       # Bytes accessed per row activation (Byte)
system.mem_ctrls0.dram.bytesRead             44580416                       # Total bytes read (Byte)
system.mem_ctrls0.dram.bytesWritten           8129664                       # Total bytes written (Byte)
system.mem_ctrls0.dram.avgRdBW               3.756985                       # Average DRAM read bandwidth in MiBytes/s ((Byte/Second))
system.mem_ctrls0.dram.avgWrBW               0.685122                       # Average DRAM write bandwidth in MiBytes/s ((Byte/Second))
system.mem_ctrls0.dram.peakBW                16000.00                       # Theoretical peak bandwidth in MiByte/s ((Byte/Second))
system.mem_ctrls0.dram.busUtil                   0.03                       # Data bus utilization in percentage (Ratio)
system.mem_ctrls0.dram.busUtilRead               0.02                       # Data bus utilization in percentage for reads (Ratio)
system.mem_ctrls0.dram.busUtilWrite              0.00                       # Data bus utilization in percentage for writes (Ratio)
system.mem_ctrls0.dram.pageHitRate              13.19                       # Row buffer hit rate, read and write combined (Ratio)
system.mem_ctrls0.dram.power_state.pwrStateResidencyTicks::UNDEFINED 11866009613000                       # Cumulative time (in ticks) in various power states (Tick)
system.mem_ctrls0.dram.rank0.actEnergy              0                       # Energy for activate commands per rank (pJ) (Joule)
system.mem_ctrls0.dram.rank0.preEnergy              0                       # Energy for precharge commands per rank (pJ) (Joule)
system.mem_ctrls0.dram.rank0.readEnergy             0                       # Energy for read commands per rank (pJ) (Joule)
system.mem_ctrls0.dram.rank0.writeEnergy            0                       # Energy for write commands per rank (pJ) (Joule)
system.mem_ctrls0.dram.rank0.refreshEnergy            0                       # Energy for refresh commands per rank (pJ) (Joule)
system.mem_ctrls0.dram.rank0.actBackEnergy            0                       # Energy for active background per rank (pJ) (Joule)
system.mem_ctrls0.dram.rank0.preBackEnergy            0                       # Energy for precharge background per rank (pJ) (Joule)
system.mem_ctrls0.dram.rank0.actPowerDownEnergy            0                       # Energy for active power-down per rank (pJ) (Joule)
system.mem_ctrls0.dram.rank0.prePowerDownEnergy            0                       # Energy for precharge power-down per rank (pJ) (Joule)
system.mem_ctrls0.dram.rank0.selfRefreshEnergy            0                       # Energy for self refresh per rank (pJ) (Joule)
system.mem_ctrls0.dram.rank0.totalEnergy            0                       # Total energy per rank (pJ) (Joule)
system.mem_ctrls0.dram.rank0.averagePower            0                       # Core power per rank (mW) (Watt)
system.mem_ctrls0.dram.rank0.totalIdleTime            0                       # Total Idle time Per DRAM Rank (Tick)
system.mem_ctrls0.dram.rank0.pwrStateTime::IDLE 11112037479000                       # Time in different power states (Tick)
system.mem_ctrls0.dram.rank0.pwrStateTime::REF 671775940000                       # Time in different power states (Tick)
system.mem_ctrls0.dram.rank0.pwrStateTime::SREF            0                       # Time in different power states (Tick)
system.mem_ctrls0.dram.rank0.pwrStateTime::PRE_PDN            0                       # Time in different power states (Tick)
system.mem_ctrls0.dram.rank0.pwrStateTime::ACT  82196194000                       # Time in different power states (Tick)
system.mem_ctrls0.dram.rank0.pwrStateTime::ACT_PDN            0                       # Time in different power states (Tick)
system.mem_ctrls0.power_state.pwrStateResidencyTicks::UNDEFINED 11866009613000                       # Cumulative time (in ticks) in various power states (Tick)
system.mem_ctrls1.avgPriority_cpu.inst::samples      7923.00                       # Average QoS priority value for accepted requests (Count)
system.mem_ctrls1.avgPriority_cpu.data::samples   1632104.00                       # Average QoS priority value for accepted requests (Count)
system.mem_ctrls1.priorityMinLatency     0.000000020000                       # per QoS priority minimum request to response latency (Second)
system.mem_ctrls1.priorityMaxLatency     0.032383873000                       # per QoS priority maximum request to response latency (Second)
system.mem_ctrls1.numReadWriteTurnArounds        14114                       # Number of turnarounds from READ to WRITE (Count)
system.mem_ctrls1.numWriteReadTurnArounds        14114                       # Number of turnarounds from WRITE to READ (Count)
system.mem_ctrls1.numStayReadState            6827077                       # Number of times bus staying in READ state (Count)
system.mem_ctrls1.numStayWriteState            239981                       # Number of times bus staying in WRITE state (Count)
system.mem_ctrls1.readReqs                    1386451                       # Number of read requests accepted (Count)
system.mem_ctrls1.writeReqs                   1001698                       # Number of write requests accepted (Count)
system.mem_ctrls1.readBursts                  1386452                       # Number of controller read bursts, including those serviced by the write queue (Count)
system.mem_ctrls1.writeBursts                 1001698                       # Number of controller write bursts, including those merged in the write queue (Count)
system.mem_ctrls1.servicedByWrQ                   504                       # Number of controller read bursts serviced by the write queue (Count)
system.mem_ctrls1.mergedWrBursts               747619                       # Number of controller write bursts merged with an existing one (Count)
system.mem_ctrls1.neitherReadNorWriteReqs            0                       # Number of requests that are neither read nor write (Count)
system.mem_ctrls1.avgRdQLen                      1.00                       # Average read queue length when enqueuing ((Count/Tick))
system.mem_ctrls1.avgWrQLen                     24.57                       # Average write queue length when enqueuing ((Count/Tick))
system.mem_ctrls1.numRdRetry                        0                       # Number of times read queue was full causing retry (Count)
system.mem_ctrls1.numWrRetry                        0                       # Number of times write queue was full causing retry (Count)
system.mem_ctrls1.readPktSize::0                  593                       # Read request sizes (log2) (Count)
system.mem_ctrls1.readPktSize::1                  209                       # Read request sizes (log2) (Count)
system.mem_ctrls1.readPktSize::2                  668                       # Read request sizes (log2) (Count)
system.mem_ctrls1.readPktSize::3              1384982                       # Read request sizes (log2) (Count)
system.mem_ctrls1.readPktSize::4                    0                       # Read request sizes (log2) (Count)
system.mem_ctrls1.readPktSize::5                    0                       # Read request sizes (log2) (Count)
system.mem_ctrls1.readPktSize::6                    0                       # Read request sizes (log2) (Count)
system.mem_ctrls1.writePktSize::0                  33                       # Write request sizes (log2) (Count)
system.mem_ctrls1.writePktSize::1                  15                       # Write request sizes (log2) (Count)
system.mem_ctrls1.writePktSize::2                 126                       # Write request sizes (log2) (Count)
system.mem_ctrls1.writePktSize::3             1001524                       # Write request sizes (log2) (Count)
system.mem_ctrls1.writePktSize::4                   0                       # Write request sizes (log2) (Count)
system.mem_ctrls1.writePktSize::5                   0                       # Write request sizes (log2) (Count)
system.mem_ctrls1.writePktSize::6                   0                       # Write request sizes (log2) (Count)
system.mem_ctrls1.rdQLenPdf::0                1385947                       # What read queue length does an incoming req see (Count)
system.mem_ctrls1.rdQLenPdf::1                      1                       # What read queue length does an incoming req see (Count)
system.mem_ctrls1.rdQLenPdf::2                      0                       # What read queue length does an incoming req see (Count)
system.mem_ctrls1.rdQLenPdf::3                      0                       # What read queue length does an incoming req see (Count)
system.mem_ctrls1.rdQLenPdf::4                      0                       # What read queue length does an incoming req see (Count)
system.mem_ctrls1.rdQLenPdf::5                      0                       # What read queue length does an incoming req see (Count)
system.mem_ctrls1.rdQLenPdf::6                      0                       # What read queue length does an incoming req see (Count)
system.mem_ctrls1.rdQLenPdf::7                      0                       # What read queue length does an incoming req see (Count)
system.mem_ctrls1.rdQLenPdf::8                      0                       # What read queue length does an incoming req see (Count)
system.mem_ctrls1.rdQLenPdf::9                      0                       # What read queue length does an incoming req see (Count)
system.mem_ctrls1.rdQLenPdf::10                     0                       # What read queue length does an incoming req see (Count)
system.mem_ctrls1.rdQLenPdf::11                     0                       # What read queue length does an incoming req see (Count)
system.mem_ctrls1.rdQLenPdf::12                     0                       # What read queue length does an incoming req see (Count)
system.mem_ctrls1.rdQLenPdf::13                     0                       # What read queue length does an incoming req see (Count)
system.mem_ctrls1.rdQLenPdf::14                     0                       # What read queue length does an incoming req see (Count)
system.mem_ctrls1.rdQLenPdf::15                     0                       # What read queue length does an incoming req see (Count)
system.mem_ctrls1.rdQLenPdf::16                     0                       # What read queue length does an incoming req see (Count)
system.mem_ctrls1.rdQLenPdf::17                     0                       # What read queue length does an incoming req see (Count)
system.mem_ctrls1.rdQLenPdf::18                     0                       # What read queue length does an incoming req see (Count)
system.mem_ctrls1.rdQLenPdf::19                     0                       # What read queue length does an incoming req see (Count)
system.mem_ctrls1.rdQLenPdf::20                     0                       # What read queue length does an incoming req see (Count)
system.mem_ctrls1.rdQLenPdf::21                     0                       # What read queue length does an incoming req see (Count)
system.mem_ctrls1.rdQLenPdf::22                     0                       # What read queue length does an incoming req see (Count)
system.mem_ctrls1.rdQLenPdf::23                     0                       # What read queue length does an incoming req see (Count)
system.mem_ctrls1.rdQLenPdf::24                     0                       # What read queue length does an incoming req see (Count)
system.mem_ctrls1.rdQLenPdf::25                     0                       # What read queue length does an incoming req see (Count)
system.mem_ctrls1.rdQLenPdf::26                     0                       # What read queue length does an incoming req see (Count)
system.mem_ctrls1.rdQLenPdf::27                     0                       # What read queue length does an incoming req see (Count)
system.mem_ctrls1.rdQLenPdf::28                     0                       # What read queue length does an incoming req see (Count)
system.mem_ctrls1.rdQLenPdf::29                     0                       # What read queue length does an incoming req see (Count)
system.mem_ctrls1.rdQLenPdf::30                     0                       # What read queue length does an incoming req see (Count)
system.mem_ctrls1.rdQLenPdf::31                     0                       # What read queue length does an incoming req see (Count)
system.mem_ctrls1.rdQLenPdf::32                     0                       # What read queue length does an incoming req see (Count)
system.mem_ctrls1.rdQLenPdf::33                     0                       # What read queue length does an incoming req see (Count)
system.mem_ctrls1.rdQLenPdf::34                     0                       # What read queue length does an incoming req see (Count)
system.mem_ctrls1.rdQLenPdf::35                     0                       # What read queue length does an incoming req see (Count)
system.mem_ctrls1.rdQLenPdf::36                     0                       # What read queue length does an incoming req see (Count)
system.mem_ctrls1.rdQLenPdf::37                     0                       # What read queue length does an incoming req see (Count)
system.mem_ctrls1.rdQLenPdf::38                     0                       # What read queue length does an incoming req see (Count)
system.mem_ctrls1.rdQLenPdf::39                     0                       # What read queue length does an incoming req see (Count)
system.mem_ctrls1.rdQLenPdf::40                     0                       # What read queue length does an incoming req see (Count)
system.mem_ctrls1.rdQLenPdf::41                     0                       # What read queue length does an incoming req see (Count)
system.mem_ctrls1.rdQLenPdf::42                     0                       # What read queue length does an incoming req see (Count)
system.mem_ctrls1.rdQLenPdf::43                     0                       # What read queue length does an incoming req see (Count)
system.mem_ctrls1.rdQLenPdf::44                     0                       # What read queue length does an incoming req see (Count)
system.mem_ctrls1.rdQLenPdf::45                     0                       # What read queue length does an incoming req see (Count)
system.mem_ctrls1.rdQLenPdf::46                     0                       # What read queue length does an incoming req see (Count)
system.mem_ctrls1.rdQLenPdf::47                     0                       # What read queue length does an incoming req see (Count)
system.mem_ctrls1.rdQLenPdf::48                     0                       # What read queue length does an incoming req see (Count)
system.mem_ctrls1.rdQLenPdf::49                     0                       # What read queue length does an incoming req see (Count)
system.mem_ctrls1.rdQLenPdf::50                     0                       # What read queue length does an incoming req see (Count)
system.mem_ctrls1.rdQLenPdf::51                     0                       # What read queue length does an incoming req see (Count)
system.mem_ctrls1.rdQLenPdf::52                     0                       # What read queue length does an incoming req see (Count)
system.mem_ctrls1.rdQLenPdf::53                     0                       # What read queue length does an incoming req see (Count)
system.mem_ctrls1.rdQLenPdf::54                     0                       # What read queue length does an incoming req see (Count)
system.mem_ctrls1.rdQLenPdf::55                     0                       # What read queue length does an incoming req see (Count)
system.mem_ctrls1.rdQLenPdf::56                     0                       # What read queue length does an incoming req see (Count)
system.mem_ctrls1.rdQLenPdf::57                     0                       # What read queue length does an incoming req see (Count)
system.mem_ctrls1.rdQLenPdf::58                     0                       # What read queue length does an incoming req see (Count)
system.mem_ctrls1.rdQLenPdf::59                     0                       # What read queue length does an incoming req see (Count)
system.mem_ctrls1.rdQLenPdf::60                     0                       # What read queue length does an incoming req see (Count)
system.mem_ctrls1.rdQLenPdf::61                     0                       # What read queue length does an incoming req see (Count)
system.mem_ctrls1.rdQLenPdf::62                     0                       # What read queue length does an incoming req see (Count)
system.mem_ctrls1.rdQLenPdf::63                     0                       # What read queue length does an incoming req see (Count)
system.mem_ctrls1.wrQLenPdf::0                      1                       # What write queue length does an incoming req see (Count)
system.mem_ctrls1.wrQLenPdf::1                      1                       # What write queue length does an incoming req see (Count)
system.mem_ctrls1.wrQLenPdf::2                      1                       # What write queue length does an incoming req see (Count)
system.mem_ctrls1.wrQLenPdf::3                      1                       # What write queue length does an incoming req see (Count)
system.mem_ctrls1.wrQLenPdf::4                      1                       # What write queue length does an incoming req see (Count)
system.mem_ctrls1.wrQLenPdf::5                      1                       # What write queue length does an incoming req see (Count)
system.mem_ctrls1.wrQLenPdf::6                      1                       # What write queue length does an incoming req see (Count)
system.mem_ctrls1.wrQLenPdf::7                      1                       # What write queue length does an incoming req see (Count)
system.mem_ctrls1.wrQLenPdf::8                      1                       # What write queue length does an incoming req see (Count)
system.mem_ctrls1.wrQLenPdf::9                      1                       # What write queue length does an incoming req see (Count)
system.mem_ctrls1.wrQLenPdf::10                     1                       # What write queue length does an incoming req see (Count)
system.mem_ctrls1.wrQLenPdf::11                     1                       # What write queue length does an incoming req see (Count)
system.mem_ctrls1.wrQLenPdf::12                     1                       # What write queue length does an incoming req see (Count)
system.mem_ctrls1.wrQLenPdf::13                     1                       # What write queue length does an incoming req see (Count)
system.mem_ctrls1.wrQLenPdf::14                     1                       # What write queue length does an incoming req see (Count)
system.mem_ctrls1.wrQLenPdf::15                 14115                       # What write queue length does an incoming req see (Count)
system.mem_ctrls1.wrQLenPdf::16                 14115                       # What write queue length does an incoming req see (Count)
system.mem_ctrls1.wrQLenPdf::17                 14115                       # What write queue length does an incoming req see (Count)
system.mem_ctrls1.wrQLenPdf::18                 14115                       # What write queue length does an incoming req see (Count)
system.mem_ctrls1.wrQLenPdf::19                 14115                       # What write queue length does an incoming req see (Count)
system.mem_ctrls1.wrQLenPdf::20                 14115                       # What write queue length does an incoming req see (Count)
system.mem_ctrls1.wrQLenPdf::21                 14115                       # What write queue length does an incoming req see (Count)
system.mem_ctrls1.wrQLenPdf::22                 14115                       # What write queue length does an incoming req see (Count)
system.mem_ctrls1.wrQLenPdf::23                 14115                       # What write queue length does an incoming req see (Count)
system.mem_ctrls1.wrQLenPdf::24                 14115                       # What write queue length does an incoming req see (Count)
system.mem_ctrls1.wrQLenPdf::25                 14115                       # What write queue length does an incoming req see (Count)
system.mem_ctrls1.wrQLenPdf::26                 14115                       # What write queue length does an incoming req see (Count)
system.mem_ctrls1.wrQLenPdf::27                 14114                       # What write queue length does an incoming req see (Count)
system.mem_ctrls1.wrQLenPdf::28                 14114                       # What write queue length does an incoming req see (Count)
system.mem_ctrls1.wrQLenPdf::29                 14114                       # What write queue length does an incoming req see (Count)
system.mem_ctrls1.wrQLenPdf::30                 14114                       # What write queue length does an incoming req see (Count)
system.mem_ctrls1.wrQLenPdf::31                 14114                       # What write queue length does an incoming req see (Count)
system.mem_ctrls1.wrQLenPdf::32                 14114                       # What write queue length does an incoming req see (Count)
system.mem_ctrls1.wrQLenPdf::33                     0                       # What write queue length does an incoming req see (Count)
system.mem_ctrls1.wrQLenPdf::34                     0                       # What write queue length does an incoming req see (Count)
system.mem_ctrls1.wrQLenPdf::35                     0                       # What write queue length does an incoming req see (Count)
system.mem_ctrls1.wrQLenPdf::36                     0                       # What write queue length does an incoming req see (Count)
system.mem_ctrls1.wrQLenPdf::37                     0                       # What write queue length does an incoming req see (Count)
system.mem_ctrls1.wrQLenPdf::38                     0                       # What write queue length does an incoming req see (Count)
system.mem_ctrls1.wrQLenPdf::39                     0                       # What write queue length does an incoming req see (Count)
system.mem_ctrls1.wrQLenPdf::40                     0                       # What write queue length does an incoming req see (Count)
system.mem_ctrls1.wrQLenPdf::41                     0                       # What write queue length does an incoming req see (Count)
system.mem_ctrls1.wrQLenPdf::42                     0                       # What write queue length does an incoming req see (Count)
system.mem_ctrls1.wrQLenPdf::43                     0                       # What write queue length does an incoming req see (Count)
system.mem_ctrls1.wrQLenPdf::44                     0                       # What write queue length does an incoming req see (Count)
system.mem_ctrls1.wrQLenPdf::45                     0                       # What write queue length does an incoming req see (Count)
system.mem_ctrls1.wrQLenPdf::46                     0                       # What write queue length does an incoming req see (Count)
system.mem_ctrls1.wrQLenPdf::47                     0                       # What write queue length does an incoming req see (Count)
system.mem_ctrls1.wrQLenPdf::48                     0                       # What write queue length does an incoming req see (Count)
system.mem_ctrls1.wrQLenPdf::49                     0                       # What write queue length does an incoming req see (Count)
system.mem_ctrls1.wrQLenPdf::50                     0                       # What write queue length does an incoming req see (Count)
system.mem_ctrls1.wrQLenPdf::51                     0                       # What write queue length does an incoming req see (Count)
system.mem_ctrls1.wrQLenPdf::52                     0                       # What write queue length does an incoming req see (Count)
system.mem_ctrls1.wrQLenPdf::53                     0                       # What write queue length does an incoming req see (Count)
system.mem_ctrls1.wrQLenPdf::54                     0                       # What write queue length does an incoming req see (Count)
system.mem_ctrls1.wrQLenPdf::55                     0                       # What write queue length does an incoming req see (Count)
system.mem_ctrls1.wrQLenPdf::56                     0                       # What write queue length does an incoming req see (Count)
system.mem_ctrls1.wrQLenPdf::57                     0                       # What write queue length does an incoming req see (Count)
system.mem_ctrls1.wrQLenPdf::58                     0                       # What write queue length does an incoming req see (Count)
system.mem_ctrls1.wrQLenPdf::59                     0                       # What write queue length does an incoming req see (Count)
system.mem_ctrls1.wrQLenPdf::60                     0                       # What write queue length does an incoming req see (Count)
system.mem_ctrls1.wrQLenPdf::61                     0                       # What write queue length does an incoming req see (Count)
system.mem_ctrls1.wrQLenPdf::62                     0                       # What write queue length does an incoming req see (Count)
system.mem_ctrls1.wrQLenPdf::63                     0                       # What write queue length does an incoming req see (Count)
system.mem_ctrls1.rdPerTurnAround::samples        14114                       # Reads before turning the bus around for writes (Count)
system.mem_ctrls1.rdPerTurnAround::mean     84.705753                       # Reads before turning the bus around for writes (Count)
system.mem_ctrls1.rdPerTurnAround::stdev    68.357504                       # Reads before turning the bus around for writes (Count)
system.mem_ctrls1.rdPerTurnAround::0-127         8837     62.61%     62.61% # Reads before turning the bus around for writes (Count)
system.mem_ctrls1.rdPerTurnAround::128-255         5273     37.36%     99.97% # Reads before turning the bus around for writes (Count)
system.mem_ctrls1.rdPerTurnAround::512-639            1      0.01%     99.98% # Reads before turning the bus around for writes (Count)
system.mem_ctrls1.rdPerTurnAround::896-1023            1      0.01%     99.99% # Reads before turning the bus around for writes (Count)
system.mem_ctrls1.rdPerTurnAround::1152-1279            1      0.01%     99.99% # Reads before turning the bus around for writes (Count)
system.mem_ctrls1.rdPerTurnAround::5120-5247            1      0.01%    100.00% # Reads before turning the bus around for writes (Count)
system.mem_ctrls1.rdPerTurnAround::total        14114                       # Reads before turning the bus around for writes (Count)
system.mem_ctrls1.wrPerTurnAround::samples        14114                       # Writes before turning the bus around for reads (Count)
system.mem_ctrls1.wrPerTurnAround::mean            18                       # Writes before turning the bus around for reads (Count)
system.mem_ctrls1.wrPerTurnAround::gmean    18.000000                       # Writes before turning the bus around for reads (Count)
system.mem_ctrls1.wrPerTurnAround::18           14114    100.00%    100.00% # Writes before turning the bus around for reads (Count)
system.mem_ctrls1.wrPerTurnAround::total        14114                       # Writes before turning the bus around for reads (Count)
[...]
system.mem_ctrls9.dram.rank0.pwrStateTime::IDLE 10189582333000                       # Time in different power states (Tick)
system.mem_ctrls9.dram.rank0.pwrStateTime::REF 671775940000                       # Time in different power states (Tick)
system.mem_ctrls9.dram.rank0.pwrStateTime::SREF            0                       # Time in different power states (Tick)
system.mem_ctrls9.dram.rank0.pwrStateTime::PRE_PDN            0                       # Time in different power states (Tick)
system.mem_ctrls9.dram.rank0.pwrStateTime::ACT 1004651340000                       # Time in different power states (Tick)
system.mem_ctrls9.dram.rank0.pwrStateTime::ACT_PDN            0                       # Time in different power states (Tick)
system.mem_ctrls9.power_state.pwrStateResidencyTicks::UNDEFINED 11866009613000                       # Cumulative time (in ticks) in various power states (Tick)
system.membus.transDist::ReadReq            176364091                       # Transaction distribution (Count)
system.membus.transDist::ReadResp           176364091                       # Transaction distribution (Count)
system.membus.transDist::WriteReq            16020609                       # Transaction distribution (Count)
system.membus.transDist::WriteResp           16020609                       # Transaction distribution (Count)
system.membus.pktCount_system.cpu.icache_port::system.mem_ctrls00.port        24966                       # Packet count per connected requestor and responder (Count)
system.membus.pktCount_system.cpu.icache_port::system.mem_ctrls01.port        15846                       # Packet count per connected requestor and responder (Count)
system.membus.pktCount_system.cpu.icache_port::system.mem_ctrls02.port        14498                       # Packet count per connected requestor and responder (Count)
system.membus.pktCount_system.cpu.icache_port::system.mem_ctrls03.port     20022292                       # Packet count per connected requestor and responder (Count)
system.membus.pktCount_system.cpu.icache_port::system.mem_ctrls04.port        69544                       # Packet count per connected requestor and responder (Count)
system.membus.pktCount_system.cpu.icache_port::system.mem_ctrls05.port     16085040                       # Packet count per connected requestor and responder (Count)
system.membus.pktCount_system.cpu.icache_port::system.mem_ctrls06.port       120422                       # Packet count per connected requestor and responder (Count)
system.membus.pktCount_system.cpu.icache_port::system.mem_ctrls07.port        47864                       # Packet count per connected requestor and responder (Count)
system.membus.pktCount_system.cpu.icache_port::system.mem_ctrls08.port        34062                       # Packet count per connected requestor and responder (Count)
system.membus.pktCount_system.cpu.icache_port::system.mem_ctrls09.port     42020462                       # Packet count per connected requestor and responder (Count)
system.membus.pktCount_system.cpu.icache_port::system.mem_ctrls10.port     60015380                       # Packet count per connected requestor and responder (Count)
system.membus.pktCount_system.cpu.icache_port::system.mem_ctrls11.port     54038196                       # Packet count per connected requestor and responder (Count)
system.membus.pktCount_system.cpu.icache_port::system.mem_ctrls12.port     36054192                       # Packet count per connected requestor and responder (Count)
system.membus.pktCount_system.cpu.icache_port::system.mem_ctrls13.port     52020818                       # Packet count per connected requestor and responder (Count)
system.membus.pktCount_system.cpu.icache_port::system.mem_ctrls14.port     18017702                       # Packet count per connected requestor and responder (Count)
system.membus.pktCount_system.cpu.icache_port::system.mem_ctrls15.port        18622                       # Packet count per connected requestor and responder (Count)
system.membus.pktCount_system.cpu.icache_port::total    298619906                       # Packet count per connected requestor and responder (Count)
system.membus.pktCount_system.cpu.dcache_port::system.mem_ctrls00.port      4767680                       # Packet count per connected requestor and responder (Count)
system.membus.pktCount_system.cpu.dcache_port::system.mem_ctrls01.port      4760452                       # Packet count per connected requestor and responder (Count)
system.membus.pktCount_system.cpu.dcache_port::system.mem_ctrls02.port      4759468                       # Packet count per connected requestor and responder (Count)
system.membus.pktCount_system.cpu.dcache_port::system.mem_ctrls03.port      4758486                       # Packet count per connected requestor and responder (Count)
system.membus.pktCount_system.cpu.dcache_port::system.mem_ctrls04.port      4759998                       # Packet count per connected requestor and responder (Count)
system.membus.pktCount_system.cpu.dcache_port::system.mem_ctrls05.port      4758226                       # Packet count per connected requestor and responder (Count)
system.membus.pktCount_system.cpu.dcache_port::system.mem_ctrls06.port      4759936                       # Packet count per connected requestor and responder (Count)
system.membus.pktCount_system.cpu.dcache_port::system.mem_ctrls07.port      4759614                       # Packet count per connected requestor and responder (Count)
system.membus.pktCount_system.cpu.dcache_port::system.mem_ctrls08.port      4761238                       # Packet count per connected requestor and responder (Count)
system.membus.pktCount_system.cpu.dcache_port::system.mem_ctrls09.port      6756100                       # Packet count per connected requestor and responder (Count)
system.membus.pktCount_system.cpu.dcache_port::system.mem_ctrls10.port      6759260                       # Packet count per connected requestor and responder (Count)
system.membus.pktCount_system.cpu.dcache_port::system.mem_ctrls11.port     10760648                       # Packet count per connected requestor and responder (Count)
system.membus.pktCount_system.cpu.dcache_port::system.mem_ctrls12.port      4758174                       # Packet count per connected requestor and responder (Count)
system.membus.pktCount_system.cpu.dcache_port::system.mem_ctrls13.port      4755176                       # Packet count per connected requestor and responder (Count)
system.membus.pktCount_system.cpu.dcache_port::system.mem_ctrls14.port      4755510                       # Packet count per connected requestor and responder (Count)
system.membus.pktCount_system.cpu.dcache_port::system.mem_ctrls15.port      4759528                       # Packet count per connected requestor and responder (Count)
system.membus.pktCount_system.cpu.dcache_port::total     86149494                       # Packet count per connected requestor and responder (Count)
system.membus.pktCount::total               384769400                       # Packet count per connected requestor and responder (Count)
system.membus.pktSize_system.cpu.icache_port::system.mem_ctrls00.port        99864                       # Cumulative packet size per connected requestor and responder (Byte)
system.membus.pktSize_system.cpu.icache_port::system.mem_ctrls01.port        63384                       # Cumulative packet size per connected requestor and responder (Byte)
system.membus.pktSize_system.cpu.icache_port::system.mem_ctrls02.port        57992                       # Cumulative packet size per connected requestor and responder (Byte)
system.membus.pktSize_system.cpu.icache_port::system.mem_ctrls03.port     80089168                       # Cumulative packet size per connected requestor and responder (Byte)
system.membus.pktSize_system.cpu.icache_port::system.mem_ctrls04.port       278176                       # Cumulative packet size per connected requestor and responder (Byte)
system.membus.pktSize_system.cpu.icache_port::system.mem_ctrls05.port     64340160                       # Cumulative packet size per connected requestor and responder (Byte)
system.membus.pktSize_system.cpu.icache_port::system.mem_ctrls06.port       481688                       # Cumulative packet size per connected requestor and responder (Byte)
system.membus.pktSize_system.cpu.icache_port::system.mem_ctrls07.port       191456                       # Cumulative packet size per connected requestor and responder (Byte)
system.membus.pktSize_system.cpu.icache_port::system.mem_ctrls08.port       136248                       # Cumulative packet size per connected requestor and responder (Byte)
system.membus.pktSize_system.cpu.icache_port::system.mem_ctrls09.port    168081848                       # Cumulative packet size per connected requestor and responder (Byte)
system.membus.pktSize_system.cpu.icache_port::system.mem_ctrls10.port    240061520                       # Cumulative packet size per connected requestor and responder (Byte)
system.membus.pktSize_system.cpu.icache_port::system.mem_ctrls11.port    216152784                       # Cumulative packet size per connected requestor and responder (Byte)
system.membus.pktSize_system.cpu.icache_port::system.mem_ctrls12.port    144216768                       # Cumulative packet size per connected requestor and responder (Byte)
system.membus.pktSize_system.cpu.icache_port::system.mem_ctrls13.port    208083272                       # Cumulative packet size per connected requestor and responder (Byte)
system.membus.pktSize_system.cpu.icache_port::system.mem_ctrls14.port     72070808                       # Cumulative packet size per connected requestor and responder (Byte)
system.membus.pktSize_system.cpu.icache_port::system.mem_ctrls15.port        74488                       # Cumulative packet size per connected requestor and responder (Byte)
system.membus.pktSize_system.cpu.icache_port::total   1194479624                       # Cumulative packet size per connected requestor and responder (Byte)
system.membus.pktSize_system.cpu.dcache_port::system.mem_ctrls00.port     19063166                       # Cumulative packet size per connected requestor and responder (Byte)
system.membus.pktSize_system.cpu.dcache_port::system.mem_ctrls01.port     19032910                       # Cumulative packet size per connected requestor and responder (Byte)
system.membus.pktSize_system.cpu.dcache_port::system.mem_ctrls02.port     19028229                       # Cumulative packet size per connected requestor and responder (Byte)
system.membus.pktSize_system.cpu.dcache_port::system.mem_ctrls03.port     19027145                       # Cumulative packet size per connected requestor and responder (Byte)
system.membus.pktSize_system.cpu.dcache_port::system.mem_ctrls04.port     19030704                       # Cumulative packet size per connected requestor and responder (Byte)
system.membus.pktSize_system.cpu.dcache_port::system.mem_ctrls05.port     19022766                       # Cumulative packet size per connected requestor and responder (Byte)
system.membus.pktSize_system.cpu.dcache_port::system.mem_ctrls06.port     19028769                       # Cumulative packet size per connected requestor and responder (Byte)
system.membus.pktSize_system.cpu.dcache_port::system.mem_ctrls07.port     19030371                       # Cumulative packet size per connected requestor and responder (Byte)
system.membus.pktSize_system.cpu.dcache_port::system.mem_ctrls08.port     19032112                       # Cumulative packet size per connected requestor and responder (Byte)
system.membus.pktSize_system.cpu.dcache_port::system.mem_ctrls09.port     27017956                       # Cumulative packet size per connected requestor and responder (Byte)
system.membus.pktSize_system.cpu.dcache_port::system.mem_ctrls10.port     27025201                       # Cumulative packet size per connected requestor and responder (Byte)
system.membus.pktSize_system.cpu.dcache_port::system.mem_ctrls11.port     43032190                       # Cumulative packet size per connected requestor and responder (Byte)
system.membus.pktSize_system.cpu.dcache_port::system.mem_ctrls12.port     19023374                       # Cumulative packet size per connected requestor and responder (Byte)
system.membus.pktSize_system.cpu.dcache_port::system.mem_ctrls13.port     19013881                       # Cumulative packet size per connected requestor and responder (Byte)
system.membus.pktSize_system.cpu.dcache_port::system.mem_ctrls14.port     19016500                       # Cumulative packet size per connected requestor and responder (Byte)
system.membus.pktSize_system.cpu.dcache_port::system.mem_ctrls15.port     19031043                       # Cumulative packet size per connected requestor and responder (Byte)
system.membus.pktSize_system.cpu.dcache_port::total    344456317                       # Cumulative packet size per connected requestor and responder (Byte)
system.membus.pktSize::total               1538935941                       # Cumulative packet size per connected requestor and responder (Byte)
system.membus.snoops                                0                       # Total snoops (Count)
system.membus.snoopTraffic                          0                       # Total snoop traffic (Byte)
system.membus.snoopFanout::samples          192384700                       # Request fanout histogram (Count)
system.membus.snoopFanout::mean                     0                       # Request fanout histogram (Count)
system.membus.snoopFanout::stdev                    0                       # Request fanout histogram (Count)
system.membus.snoopFanout::underflows               0      0.00%      0.00% # Request fanout histogram (Count)
system.membus.snoopFanout::0                192384700    100.00%    100.00% # Request fanout histogram (Count)
system.membus.snoopFanout::1                        0      0.00%    100.00% # Request fanout histogram (Count)
system.membus.snoopFanout::overflows                0      0.00%    100.00% # Request fanout histogram (Count)
system.membus.snoopFanout::min_value                0                       # Request fanout histogram (Count)
system.membus.snoopFanout::max_value                0                       # Request fanout histogram (Count)
system.membus.snoopFanout::total            192384700                       # Request fanout histogram (Count)
system.membus.power_state.pwrStateResidencyTicks::UNDEFINED 11866009613000                       # Cumulative time (in ticks) in various power states (Tick)
system.membus.reqLayer10.occupancy         3398847000                       # Layer occupancy (ticks) (Tick)
system.membus.reqLayer10.utilization              0.0                       # Layer utilization (Ratio)
system.membus.reqLayer11.occupancy        25388958000                       # Layer occupancy (ticks) (Tick)
system.membus.reqLayer11.utilization              0.0                       # Layer utilization (Ratio)
system.membus.reqLayer12.occupancy        34388649000                       # Layer occupancy (ticks) (Tick)
system.membus.reqLayer12.utilization              0.0                       # Layer utilization (Ratio)
system.membus.reqLayer13.occupancy        33400849000                       # Layer occupancy (ticks) (Tick)
system.membus.reqLayer13.utilization              0.0                       # Layer utilization (Ratio)
system.membus.reqLayer14.occupancy        21406734000                       # Layer occupancy (ticks) (Tick)
system.membus.reqLayer14.utilization              0.0                       # Layer utilization (Ratio)
system.membus.reqLayer15.occupancy        29388269000                       # Layer occupancy (ticks) (Tick)
system.membus.reqLayer15.utilization              0.0                       # Layer utilization (Ratio)
system.membus.reqLayer16.occupancy        12387269000                       # Layer occupancy (ticks) (Tick)
system.membus.reqLayer16.utilization              0.0                       # Layer utilization (Ratio)
system.membus.reqLayer17.occupancy         3390819000                       # Layer occupancy (ticks) (Tick)
system.membus.reqLayer17.utilization              0.0                       # Layer utilization (Ratio)
system.membus.reqLayer2.occupancy          3399079000                       # Layer occupancy (ticks) (Tick)
system.membus.reqLayer2.utilization               0.0                       # Layer utilization (Ratio)
system.membus.reqLayer3.occupancy          3389847000                       # Layer occupancy (ticks) (Tick)
system.membus.reqLayer3.utilization               0.0                       # Layer utilization (Ratio)
system.membus.reqLayer4.occupancy          3388346000                       # Layer occupancy (ticks) (Tick)
system.membus.reqLayer4.utilization               0.0                       # Layer utilization (Ratio)
system.membus.reqLayer5.occupancy         13391978000                       # Layer occupancy (ticks) (Tick)
system.membus.reqLayer5.utilization               0.0                       # Layer utilization (Ratio)
system.membus.reqLayer6.occupancy          3416259000                       # Layer occupancy (ticks) (Tick)
system.membus.reqLayer6.utilization               0.0                       # Layer utilization (Ratio)
system.membus.reqLayer7.occupancy         11422831000                       # Layer occupancy (ticks) (Tick)
system.membus.reqLayer7.utilization               0.0                       # Layer utilization (Ratio)
system.membus.reqLayer8.occupancy          3441574000                       # Layer occupancy (ticks) (Tick)
system.membus.reqLayer8.utilization               0.0                       # Layer utilization (Ratio)
system.membus.reqLayer9.occupancy          3405001000                       # Layer occupancy (ticks) (Tick)
system.membus.reqLayer9.utilization               0.0                       # Layer utilization (Ratio)
system.membus.respLayer1.occupancy       298619906000                       # Layer occupancy (ticks) (Tick)
system.membus.respLayer1.utilization              0.0                       # Layer utilization (Ratio)
system.membus.respLayer2.occupancy        70128885000                       # Layer occupancy (ticks) (Tick)
system.membus.respLayer2.utilization              0.0                       # Layer utilization (Ratio)
system.membus.snoop_filter.totRequests              0                       # Total number of requests made to the snoop filter. (Count)
system.membus.snoop_filter.hitSingleRequests            0                       # Number of requests hitting in the snoop filter with a single holder of the requested data. (Count)
system.membus.snoop_filter.hitMultiRequests            0                       # Number of requests hitting in the snoop filter with multiple (>1) holders of the requested data. (Count)
system.membus.snoop_filter.totSnoops                0                       # Total number of snoops made to the snoop filter. (Count)
system.membus.snoop_filter.hitSingleSnoops            0                       # Number of snoops hitting in the snoop filter with a single holder of the requested data. (Count)
system.membus.snoop_filter.hitMultiSnoops            0                       # Number of snoops hitting in the snoop filter with multiple (>1) holders of the requested data. (Count)
system.voltage_domain.voltage                       1                       # Voltage in Volts (Volt)
system.workload.inst.arm                            0                       # number of arm instructions executed (Count)
system.workload.inst.quiesce                        0                       # number of quiesce instructions executed (Count)

---------- End Simulation Statistics   ----------
