
---------- Begin Simulation Statistics ----------
simSeconds                                   0.037046                       # Number of seconds simulated (Second)
simTicks                                  37045527500                       # Number of ticks simulated (Tick)
finalTick                                 37045527500                       # Number of ticks from beginning of simulation (restored from checkpoints and never reset) (Tick)
simFreq                                  1000000000000                       # The number of ticks per simulated second ((Tick/Second))
hostSeconds                                    883.15                       # Real time elapsed on the host (Second)
hostTickRate                                 41947108                       # The number of ticks simulated per host second (ticks/s) ((Tick/Second))
hostMemory                                     936368                       # Number of bytes of host memory used (Byte)
simInsts                                    133033795                       # Number of instructions simulated (Count)
simOps                                      235514879                       # Number of ops (including micro ops) simulated (Count)
hostInstRate                                   150636                       # Simulator instruction rate (inst/s) ((Count/Second))
hostOpRate                                     266676                       # Simulator op (including micro ops) rate (op/s) ((Count/Second))
system.clk_domain.clock                          1000                       # Clock period in ticks (Tick)
system.cpu0.numCycles                       148182111                       # Number of cpu cycles simulated (Cycle)
system.cpu0.numWorkItemsStarted                     0                       # Number of work items this cpu started (Count)
system.cpu0.numWorkItemsCompleted                   0                       # Number of work items this cpu completed (Count)
system.cpu0.instsAdded                       55959922                       # Number of instructions added to the IQ (excludes non-spec) (Count)
system.cpu0.nonSpecInstsAdded                    1242                       # Number of non-speculative instructions added to the IQ (Count)
system.cpu0.instsIssued                      55849228                       # Number of instructions issued (Count)
system.cpu0.squashedInstsIssued                  2086                       # Number of squashed instructions issued (Count)
system.cpu0.squashedInstsExamined              572546                       # Number of squashed instructions iterated over during squash; mainly for profiling (Count)
system.cpu0.squashedOperandsExamined           776350                       # Number of squashed operands that are examined and possibly removed from graph (Count)
system.cpu0.squashedNonSpecRemoved                342                       # Number of squashed non-spec instructions that were removed (Count)
system.cpu0.numIssuedDist::samples          147793113                       # Number of insts issued each cycle (Count)
system.cpu0.numIssuedDist::mean              0.377888                       # Number of insts issued each cycle (Count)
system.cpu0.numIssuedDist::stdev             1.188999                       # Number of insts issued each cycle (Count)
system.cpu0.numIssuedDist::underflows               0      0.00%      0.00% # Number of insts issued each cycle (Count)
system.cpu0.numIssuedDist::0                128096148     86.67%     86.67% # Number of insts issued each cycle (Count)
system.cpu0.numIssuedDist::1                  6124747      4.14%     90.82% # Number of insts issued each cycle (Count)
system.cpu0.numIssuedDist::2                  5109999      3.46%     94.27% # Number of insts issued each cycle (Count)
system.cpu0.numIssuedDist::3                  2159011      1.46%     95.74% # Number of insts issued each cycle (Count)
system.cpu0.numIssuedDist::4                  2749673      1.86%     97.60% # Number of insts issued each cycle (Count)
system.cpu0.numIssuedDist::5                  1047069      0.71%     98.30% # Number of insts issued each cycle (Count)
system.cpu0.numIssuedDist::6                  1168154      0.79%     99.09% # Number of insts issued each cycle (Count)
system.cpu0.numIssuedDist::7                   922007      0.62%     99.72% # Number of insts issued each cycle (Count)
system.cpu0.numIssuedDist::8                   416305      0.28%    100.00% # Number of insts issued each cycle (Count)
system.cpu0.numIssuedDist::overflows                0      0.00%    100.00% # Number of insts issued each cycle (Count)
system.cpu0.numIssuedDist::min_value                0                       # Number of insts issued each cycle (Count)
system.cpu0.numIssuedDist::max_value                8                       # Number of insts issued each cycle (Count)
system.cpu0.numIssuedDist::total            147793113                       # Number of insts issued each cycle (Count)
system.cpu0.statFuBusy::No_OpClass                  0      0.00%      0.00% # attempts to use FU when none available (Count)
system.cpu0.statFuBusy::IntAlu                  13254      1.57%      1.57% # attempts to use FU when none available (Count)
system.cpu0.statFuBusy::IntMult                     0      0.00%      1.57% # attempts to use FU when none available (Count)
system.cpu0.statFuBusy::IntDiv                      0      0.00%      1.57% # attempts to use FU when none available (Count)
system.cpu0.statFuBusy::FloatAdd                    0      0.00%      1.57% # attempts to use FU when none available (Count)
system.cpu0.statFuBusy::FloatCmp                    0      0.00%      1.57% # attempts to use FU when none available (Count)
system.cpu0.statFuBusy::FloatCvt                    0      0.00%      1.57% # attempts to use FU when none available (Count)
system.cpu0.statFuBusy::FloatMult                   0      0.00%      1.57% # attempts to use FU when none available (Count)
system.cpu0.statFuBusy::FloatMultAcc                0      0.00%      1.57% # attempts to use FU when none available (Count)
system.cpu0.statFuBusy::FloatDiv                    0      0.00%      1.57% # attempts to use FU when none available (Count)
system.cpu0.statFuBusy::FloatMisc                   0      0.00%      1.57% # attempts to use FU when none available (Count)
system.cpu0.statFuBusy::FloatSqrt                   0      0.00%      1.57% # attempts to use FU when none available (Count)
system.cpu0.statFuBusy::SimdAdd                     2      0.00%      1.57% # attempts to use FU when none available (Count)
system.cpu0.statFuBusy::SimdAddAcc                  0      0.00%      1.57% # attempts to use FU when none available (Count)
system.cpu0.statFuBusy::SimdAlu                   117      0.01%      1.59% # attempts to use FU when none available (Count)
system.cpu0.statFuBusy::SimdCmp                     0      0.00%      1.59% # attempts to use FU when none available (Count)
system.cpu0.statFuBusy::SimdCvt                   113      0.01%      1.60% # attempts to use FU when none available (Count)
system.cpu0.statFuBusy::SimdMisc                   65      0.01%      1.61% # attempts to use FU when none available (Count)
system.cpu0.statFuBusy::SimdMult                    0      0.00%      1.61% # attempts to use FU when none available (Count)
system.cpu0.statFuBusy::SimdMultAcc                 0      0.00%      1.61% # attempts to use FU when none available (Count)
system.cpu0.statFuBusy::SimdShift                  24      0.00%      1.61% # attempts to use FU when none available (Count)
system.cpu0.statFuBusy::SimdShiftAcc                0      0.00%      1.61% # attempts to use FU when none available (Count)
system.cpu0.statFuBusy::SimdDiv                     0      0.00%      1.61% # attempts to use FU when none available (Count)
system.cpu0.statFuBusy::SimdSqrt                    0      0.00%      1.61% # attempts to use FU when none available (Count)
system.cpu0.statFuBusy::SimdFloatAdd           751070     89.24%     90.85% # attempts to use FU when none available (Count)
system.cpu0.statFuBusy::SimdFloatAlu                0      0.00%     90.85% # attempts to use FU when none available (Count)
system.cpu0.statFuBusy::SimdFloatCmp                0      0.00%     90.85% # attempts to use FU when none available (Count)
system.cpu0.statFuBusy::SimdFloatCvt                0      0.00%     90.85% # attempts to use FU when none available (Count)
system.cpu0.statFuBusy::SimdFloatDiv                0      0.00%     90.85% # attempts to use FU when none available (Count)
system.cpu0.statFuBusy::SimdFloatMisc               0      0.00%     90.85% # attempts to use FU when none available (Count)
system.cpu0.statFuBusy::SimdFloatMult               0      0.00%     90.85% # attempts to use FU when none available (Count)
system.cpu0.statFuBusy::SimdFloatMultAcc            0      0.00%     90.85% # attempts to use FU when none available (Count)
system.cpu0.statFuBusy::SimdFloatSqrt               0      0.00%     90.85% # attempts to use FU when none available (Count)
system.cpu0.statFuBusy::SimdReduceAdd               0      0.00%     90.85% # attempts to use FU when none available (Count)
system.cpu0.statFuBusy::SimdReduceAlu               0      0.00%     90.85% # attempts to use FU when none available (Count)
system.cpu0.statFuBusy::SimdReduceCmp               0      0.00%     90.85% # attempts to use FU when none available (Count)
system.cpu0.statFuBusy::SimdFloatReduceAdd            0      0.00%     90.85% # attempts to use FU when none available (Count)
system.cpu0.statFuBusy::SimdFloatReduceCmp            0      0.00%     90.85% # attempts to use FU when none available (Count)
system.cpu0.statFuBusy::SimdAes                     0      0.00%     90.85% # attempts to use FU when none available (Count)
system.cpu0.statFuBusy::SimdAesMix                  0      0.00%     90.85% # attempts to use FU when none available (Count)
system.cpu0.statFuBusy::SimdSha1Hash                0      0.00%     90.85% # attempts to use FU when none available (Count)
system.cpu0.statFuBusy::SimdSha1Hash2               0      0.00%     90.85% # attempts to use FU when none available (Count)
system.cpu0.statFuBusy::SimdSha256Hash              0      0.00%     90.85% # attempts to use FU when none available (Count)
system.cpu0.statFuBusy::SimdSha256Hash2             0      0.00%     90.85% # attempts to use FU when none available (Count)
system.cpu0.statFuBusy::SimdShaSigma2               0      0.00%     90.85% # attempts to use FU when none available (Count)
system.cpu0.statFuBusy::SimdShaSigma3               0      0.00%     90.85% # attempts to use FU when none available (Count)
system.cpu0.statFuBusy::SimdPredAlu                 0      0.00%     90.85% # attempts to use FU when none available (Count)
system.cpu0.statFuBusy::MemRead                  1874      0.22%     91.07% # attempts to use FU when none available (Count)
system.cpu0.statFuBusy::MemWrite                 1270      0.15%     91.22% # attempts to use FU when none available (Count)
system.cpu0.statFuBusy::FloatMemRead            14594      1.73%     92.96% # attempts to use FU when none available (Count)
system.cpu0.statFuBusy::FloatMemWrite           59272      7.04%    100.00% # attempts to use FU when none available (Count)
system.cpu0.statFuBusy::IprAccess                   0      0.00%    100.00% # attempts to use FU when none available (Count)
system.cpu0.statFuBusy::InstPrefetch                0      0.00%    100.00% # attempts to use FU when none available (Count)
system.cpu0.statIssuedInstType_0::No_OpClass         6508      0.01%      0.01% # Number of instructions issued per FU type, per thread (Count)
system.cpu0.statIssuedInstType_0::IntAlu     28589513     51.19%     51.20% # Number of instructions issued per FU type, per thread (Count)
system.cpu0.statIssuedInstType_0::IntMult          316      0.00%     51.20% # Number of instructions issued per FU type, per thread (Count)
system.cpu0.statIssuedInstType_0::IntDiv         2913      0.01%     51.21% # Number of instructions issued per FU type, per thread (Count)
system.cpu0.statIssuedInstType_0::FloatAdd      4131509      7.40%     58.61% # Number of instructions issued per FU type, per thread (Count)
system.cpu0.statIssuedInstType_0::FloatCmp            0      0.00%     58.61% # Number of instructions issued per FU type, per thread (Count)
system.cpu0.statIssuedInstType_0::FloatCvt          550      0.00%     58.61% # Number of instructions issued per FU type, per thread (Count)
system.cpu0.statIssuedInstType_0::FloatMult            0      0.00%     58.61% # Number of instructions issued per FU type, per thread (Count)
system.cpu0.statIssuedInstType_0::FloatMultAcc            0      0.00%     58.61% # Number of instructions issued per FU type, per thread (Count)
system.cpu0.statIssuedInstType_0::FloatDiv            0      0.00%     58.61% # Number of instructions issued per FU type, per thread (Count)
system.cpu0.statIssuedInstType_0::FloatMisc            0      0.00%     58.61% # Number of instructions issued per FU type, per thread (Count)
system.cpu0.statIssuedInstType_0::FloatSqrt            0      0.00%     58.61% # Number of instructions issued per FU type, per thread (Count)
system.cpu0.statIssuedInstType_0::SimdAdd         2660      0.00%     58.61% # Number of instructions issued per FU type, per thread (Count)
system.cpu0.statIssuedInstType_0::SimdAddAcc            0      0.00%     58.61% # Number of instructions issued per FU type, per thread (Count)
system.cpu0.statIssuedInstType_0::SimdAlu        26692      0.05%     58.66% # Number of instructions issued per FU type, per thread (Count)
system.cpu0.statIssuedInstType_0::SimdCmp           76      0.00%     58.66% # Number of instructions issued per FU type, per thread (Count)
system.cpu0.statIssuedInstType_0::SimdCvt         6380      0.01%     58.67% # Number of instructions issued per FU type, per thread (Count)
system.cpu0.statIssuedInstType_0::SimdMisc         4213      0.01%     58.68% # Number of instructions issued per FU type, per thread (Count)
system.cpu0.statIssuedInstType_0::SimdMult            0      0.00%     58.68% # Number of instructions issued per FU type, per thread (Count)
system.cpu0.statIssuedInstType_0::SimdMultAcc            0      0.00%     58.68% # Number of instructions issued per FU type, per thread (Count)
system.cpu0.statIssuedInstType_0::SimdShift         1837      0.00%     58.68% # Number of instructions issued per FU type, per thread (Count)
system.cpu0.statIssuedInstType_0::SimdShiftAcc            0      0.00%     58.68% # Number of instructions issued per FU type, per thread (Count)
system.cpu0.statIssuedInstType_0::SimdDiv            0      0.00%     58.68% # Number of instructions issued per FU type, per thread (Count)
system.cpu0.statIssuedInstType_0::SimdSqrt            0      0.00%     58.68% # Number of instructions issued per FU type, per thread (Count)
system.cpu0.statIssuedInstType_0::SimdFloatAdd      7135469     12.78%     71.46% # Number of instructions issued per FU type, per thread (Count)
system.cpu0.statIssuedInstType_0::SimdFloatAlu            0      0.00%     71.46% # Number of instructions issued per FU type, per thread (Count)
system.cpu0.statIssuedInstType_0::SimdFloatCmp           26      0.00%     71.46% # Number of instructions issued per FU type, per thread (Count)
system.cpu0.statIssuedInstType_0::SimdFloatCvt      3015754      5.40%     76.86% # Number of instructions issued per FU type, per thread (Count)
system.cpu0.statIssuedInstType_0::SimdFloatDiv           16      0.00%     76.86% # Number of instructions issued per FU type, per thread (Count)
system.cpu0.statIssuedInstType_0::SimdFloatMisc            0      0.00%     76.86% # Number of instructions issued per FU type, per thread (Count)
system.cpu0.statIssuedInstType_0::SimdFloatMult      1005281      1.80%     78.66% # Number of instructions issued per FU type, per thread (Count)
system.cpu0.statIssuedInstType_0::SimdFloatMultAcc            0      0.00%     78.66% # Number of instructions issued per FU type, per thread (Count)
system.cpu0.statIssuedInstType_0::SimdFloatSqrt            0      0.00%     78.66% # Number of instructions issued per FU type, per thread (Count)
system.cpu0.statIssuedInstType_0::SimdReduceAdd            0      0.00%     78.66% # Number of instructions issued per FU type, per thread (Count)
system.cpu0.statIssuedInstType_0::SimdReduceAlu            0      0.00%     78.66% # Number of instructions issued per FU type, per thread (Count)
system.cpu0.statIssuedInstType_0::SimdReduceCmp            0      0.00%     78.66% # Number of instructions issued per FU type, per thread (Count)
system.cpu0.statIssuedInstType_0::SimdFloatReduceAdd            0      0.00%     78.66% # Number of instructions issued per FU type, per thread (Count)
system.cpu0.statIssuedInstType_0::SimdFloatReduceCmp            0      0.00%     78.66% # Number of instructions issued per FU type, per thread (Count)
system.cpu0.statIssuedInstType_0::SimdAes            0      0.00%     78.66% # Number of instructions issued per FU type, per thread (Count)
system.cpu0.statIssuedInstType_0::SimdAesMix            0      0.00%     78.66% # Number of instructions issued per FU type, per thread (Count)
system.cpu0.statIssuedInstType_0::SimdSha1Hash            0      0.00%     78.66% # Number of instructions issued per FU type, per thread (Count)
system.cpu0.statIssuedInstType_0::SimdSha1Hash2            0      0.00%     78.66% # Number of instructions issued per FU type, per thread (Count)
system.cpu0.statIssuedInstType_0::SimdSha256Hash            0      0.00%     78.66% # Number of instructions issued per FU type, per thread (Count)
system.cpu0.statIssuedInstType_0::SimdSha256Hash2            0      0.00%     78.66% # Number of instructions issued per FU type, per thread (Count)
system.cpu0.statIssuedInstType_0::SimdShaSigma2            0      0.00%     78.66% # Number of instructions issued per FU type, per thread (Count)
system.cpu0.statIssuedInstType_0::SimdShaSigma3            0      0.00%     78.66% # Number of instructions issued per FU type, per thread (Count)
system.cpu0.statIssuedInstType_0::SimdPredAlu            0      0.00%     78.66% # Number of instructions issued per FU type, per thread (Count)
system.cpu0.statIssuedInstType_0::MemRead       178128      0.32%     78.98% # Number of instructions issued per FU type, per thread (Count)
system.cpu0.statIssuedInstType_0::MemWrite       185640      0.33%     79.31% # Number of instructions issued per FU type, per thread (Count)
system.cpu0.statIssuedInstType_0::FloatMemRead      9175092     16.43%     95.74% # Number of instructions issued per FU type, per thread (Count)
system.cpu0.statIssuedInstType_0::FloatMemWrite      2380655      4.26%    100.00% # Number of instructions issued per FU type, per thread (Count)
system.cpu0.statIssuedInstType_0::IprAccess            0      0.00%    100.00% # Number of instructions issued per FU type, per thread (Count)
system.cpu0.statIssuedInstType_0::InstPrefetch            0      0.00%    100.00% # Number of instructions issued per FU type, per thread (Count)
system.cpu0.statIssuedInstType_0::total      55849228                       # Number of instructions issued per FU type, per thread (Count)
system.cpu0.issueRate                        0.376896                       # Inst issue rate ((Count/Cycle))
system.cpu0.fuBusy                             841655                       # FU busy when requested (Count)
system.cpu0.fuBusyRate                       0.015070                       # FU busy rate (busy events/executed inst) ((Count/Count))
system.cpu0.intInstQueueReads               201714080                       # Number of integer instruction queue reads (Count)
system.cpu0.intInstQueueWrites               27577301                       # Number of integer instruction queue writes (Count)
system.cpu0.intInstQueueWakeupAccesses       26898398                       # Number of integer instruction queue wakeup accesses (Count)
system.cpu0.fpInstQueueReads                 58621230                       # Number of floating instruction queue reads (Count)
system.cpu0.fpInstQueueWrites                28956719                       # Number of floating instruction queue writes (Count)
system.cpu0.fpInstQueueWakeupAccesses        28882836                       # Number of floating instruction queue wakeup accesses (Count)
system.cpu0.vecInstQueueReads                       0                       # Number of vector instruction queue reads (Count)
system.cpu0.vecInstQueueWrites                      0                       # Number of vector instruction queue writes (Count)
system.cpu0.vecInstQueueWakeupAccesses              0                       # Number of vector instruction queue wakeup accesses (Count)
system.cpu0.intAluAccesses                   26961254                       # Number of integer alu accesses (Count)
system.cpu0.fpAluAccesses                    29723121                       # Number of floating point alu accesses (Count)
system.cpu0.vecAluAccesses                          0                       # Number of vector alu accesses (Count)
system.cpu0.numInsts                         55817413                       # Number of executed instructions (Count)
system.cpu0.numLoadInsts                      9347363                       # Number of load instructions executed (Count)
system.cpu0.numSquashedInsts                    31815                       # Number of squashed instructions skipped in execute (Count)
system.cpu0.numSwp                                  0                       # Number of swp insts executed (Count)
system.cpu0.numNop                                  0                       # Number of nop insts executed (Count)
system.cpu0.numRefs                          11912653                       # Number of memory reference insts executed (Count)
system.cpu0.numBranches                       5222096                       # Number of branches executed (Count)
system.cpu0.numStoreInsts                     2565290                       # Number of stores executed (Count)
system.cpu0.numRate                          0.376681                       # Inst execution rate ((Count/Cycle))
system.cpu0.timesIdled                           1901                       # Number of times that the entire CPU went into an idle state and unscheduled itself (Count)
system.cpu0.idleCycles                         388998                       # Total number of cycles that the CPU has spent unscheduled due to idling (Cycle)
system.cpu0.committedInsts                   30474905                       # Number of Instructions Simulated (Count)
system.cpu0.committedOps                     55388612                       # Number of Ops (including micro ops) Simulated (Count)
system.cpu0.cpi                              4.862431                       # CPI: Cycles Per Instruction ((Cycle/Count))
system.cpu0.totalCpi                         4.862431                       # CPI: Total CPI of All Threads ((Cycle/Count))
system.cpu0.ipc                              0.205658                       # IPC: Instructions Per Cycle ((Count/Cycle))
system.cpu0.totalIpc                         0.205658                       # IPC: Total IPC of All Threads ((Count/Cycle))
system.cpu0.intRegfileReads                  44037625                       # Number of integer regfile reads (Count)
system.cpu0.intRegfileWrites                 19312884                       # Number of integer regfile writes (Count)
system.cpu0.fpRegfileReads                   36947311                       # Number of floating regfile reads (Count)
system.cpu0.fpRegfileWrites                  23493641                       # Number of floating regfile writes (Count)
system.cpu0.ccRegfileReads                   32061614                       # number of cc regfile reads (Count)
system.cpu0.ccRegfileWrites                  14690795                       # number of cc regfile writes (Count)
system.cpu0.miscRegfileReads                 23378143                       # number of misc regfile reads (Count)
system.cpu0.miscRegfileWrites                     234                       # number of misc regfile writes (Count)
system.cpu0.MemDepUnit__0.insertedLoads       9348442                       # Number of loads inserted to the mem dependence unit. (Count)
system.cpu0.MemDepUnit__0.insertedStores      2571249                       # Number of stores inserted to the mem dependence unit. (Count)
system.cpu0.MemDepUnit__0.conflictingLoads       129539                       # Number of conflicting loads. (Count)
system.cpu0.MemDepUnit__0.conflictingStores       127987                       # Number of conflicting stores. (Count)
system.cpu0.MemDepUnit__1.insertedLoads             0                       # Number of loads inserted to the mem dependence unit. (Count)
system.cpu0.MemDepUnit__1.insertedStores            0                       # Number of stores inserted to the mem dependence unit. (Count)
system.cpu0.MemDepUnit__1.conflictingLoads            0                       # Number of conflicting loads. (Count)
system.cpu0.MemDepUnit__1.conflictingStores            0                       # Number of conflicting stores. (Count)
system.cpu0.MemDepUnit__2.insertedLoads             0                       # Number of loads inserted to the mem dependence unit. (Count)
system.cpu0.MemDepUnit__2.insertedStores            0                       # Number of stores inserted to the mem dependence unit. (Count)
system.cpu0.MemDepUnit__2.conflictingLoads            0                       # Number of conflicting loads. (Count)
system.cpu0.MemDepUnit__2.conflictingStores            0                       # Number of conflicting stores. (Count)
system.cpu0.MemDepUnit__3.insertedLoads             0                       # Number of loads inserted to the mem dependence unit. (Count)
system.cpu0.MemDepUnit__3.insertedStores            0                       # Number of stores inserted to the mem dependence unit. (Count)
system.cpu0.MemDepUnit__3.conflictingLoads            0                       # Number of conflicting loads. (Count)
system.cpu0.MemDepUnit__3.conflictingStores            0                       # Number of conflicting stores. (Count)
system.cpu0.branchPred.lookups                5277444                       # Number of BP lookups (Count)
system.cpu0.branchPred.condPredicted          5223126                       # Number of conditional branches predicted (Count)
system.cpu0.branchPred.condIncorrect             9108                       # Number of conditional branches incorrect (Count)
system.cpu0.branchPred.BTBLookups             2145566                       # Number of BTB lookups (Count)
system.cpu0.branchPred.BTBHits                2141893                       # Number of BTB hits (Count)
system.cpu0.branchPred.BTBHitRatio           0.998288                       # BTB Hit Ratio (Ratio)
system.cpu0.branchPred.RASUsed                  19034                       # Number of times the RAS was used to get a target. (Count)
system.cpu0.branchPred.RASIncorrect                 5                       # Number of incorrect RAS predictions. (Count)
system.cpu0.branchPred.indirectLookups          10708                       # Number of indirect predictor lookups. (Count)
system.cpu0.branchPred.indirectHits              6474                       # Number of indirect target hits. (Count)
system.cpu0.branchPred.indirectMisses            4234                       # Number of indirect misses. (Count)
system.cpu0.branchPred.indirectMispredicted          896                       # Number of mispredicted indirect branches. (Count)
system.cpu0.commit.commitSquashedInsts         463801                       # The number of squashed insts skipped by commit (Count)
system.cpu0.commit.commitNonSpecStalls            900                       # The number of times commit has been forced to stall to communicate backwards (Count)
system.cpu0.commit.branchMispredicts             9333                       # The number of times a branch was mispredicted (Count)
system.cpu0.commit.numCommittedDist::samples    147725659                       # Number of insts commited each cycle (Count)
system.cpu0.commit.numCommittedDist::mean     0.374942                       # Number of insts commited each cycle (Count)
system.cpu0.commit.numCommittedDist::stdev     1.549235                       # Number of insts commited each cycle (Count)
system.cpu0.commit.numCommittedDist::underflows            0      0.00%      0.00% # Number of insts commited each cycle (Count)
system.cpu0.commit.numCommittedDist::0      136616140     92.48%     92.48% # Number of insts commited each cycle (Count)
system.cpu0.commit.numCommittedDist::1        2443472      1.65%     94.13% # Number of insts commited each cycle (Count)
system.cpu0.commit.numCommittedDist::2         982522      0.67%     94.80% # Number of insts commited each cycle (Count)
system.cpu0.commit.numCommittedDist::3        1038604      0.70%     95.50% # Number of insts commited each cycle (Count)
system.cpu0.commit.numCommittedDist::4         935729      0.63%     96.14% # Number of insts commited each cycle (Count)
system.cpu0.commit.numCommittedDist::5         336529      0.23%     96.36% # Number of insts commited each cycle (Count)
system.cpu0.commit.numCommittedDist::6         255319      0.17%     96.54% # Number of insts commited each cycle (Count)
system.cpu0.commit.numCommittedDist::7          31943      0.02%     96.56% # Number of insts commited each cycle (Count)
system.cpu0.commit.numCommittedDist::8        5085401      3.44%    100.00% # Number of insts commited each cycle (Count)
system.cpu0.commit.numCommittedDist::overflows            0      0.00%    100.00% # Number of insts commited each cycle (Count)
system.cpu0.commit.numCommittedDist::min_value            0                       # Number of insts commited each cycle (Count)
system.cpu0.commit.numCommittedDist::max_value            8                       # Number of insts commited each cycle (Count)
system.cpu0.commit.numCommittedDist::total    147725659                       # Number of insts commited each cycle (Count)
system.cpu0.commit.instsCommitted            30474905                       # Number of instructions committed (Count)
system.cpu0.commit.opsCommitted              55388612                       # Number of ops (including micro ops) committed (Count)
system.cpu0.commit.memRefs                   11815216                       # Number of memory references committed (Count)
system.cpu0.commit.loads                      9266121                       # Number of loads committed (Count)
system.cpu0.commit.amos                             0                       # Number of atomic instructions committed (Count)
system.cpu0.commit.membars                        444                       # Number of memory barriers committed (Count)
system.cpu0.commit.branches                   5185830                       # Number of branches committed (Count)
system.cpu0.commit.vectorInstructions               0                       # Number of committed Vector instructions. (Count)
system.cpu0.commit.floating                  28826801                       # Number of committed floating point instructions. (Count)
system.cpu0.commit.integer                   38066797                       # Number of committed integer instructions. (Count)
system.cpu0.commit.functionCalls                 8909                       # Number of function calls committed. (Count)
system.cpu0.commit.committedInstType_0::No_OpClass         2181      0.00%      0.00% # Class of committed instruction (Count)
system.cpu0.commit.committedInstType_0::IntAlu     28273185     51.05%     51.05% # Class of committed instruction (Count)
system.cpu0.commit.committedInstType_0::IntMult          288      0.00%     51.05% # Class of committed instruction (Count)
system.cpu0.commit.committedInstType_0::IntDiv         2620      0.00%     51.05% # Class of committed instruction (Count)
system.cpu0.commit.committedInstType_0::FloatAdd      4128281      7.45%     58.51% # Class of committed instruction (Count)
system.cpu0.commit.committedInstType_0::FloatCmp            0      0.00%     58.51% # Class of committed instruction (Count)
system.cpu0.commit.committedInstType_0::FloatCvt          416      0.00%     58.51% # Class of committed instruction (Count)
system.cpu0.commit.committedInstType_0::FloatMult            0      0.00%     58.51% # Class of committed instruction (Count)
system.cpu0.commit.committedInstType_0::FloatMultAcc            0      0.00%     58.51% # Class of committed instruction (Count)
system.cpu0.commit.committedInstType_0::FloatDiv            0      0.00%     58.51% # Class of committed instruction (Count)
system.cpu0.commit.committedInstType_0::FloatMisc            0      0.00%     58.51% # Class of committed instruction (Count)
system.cpu0.commit.committedInstType_0::FloatSqrt            0      0.00%     58.51% # Class of committed instruction (Count)
system.cpu0.commit.committedInstType_0::SimdAdd         2080      0.00%     58.51% # Class of committed instruction (Count)
system.cpu0.commit.committedInstType_0::SimdAddAcc            0      0.00%     58.51% # Class of committed instruction (Count)
system.cpu0.commit.committedInstType_0::SimdAlu        14221      0.03%     58.54% # Class of committed instruction (Count)
system.cpu0.commit.committedInstType_0::SimdCmp           72      0.00%     58.54% # Class of committed instruction (Count)
system.cpu0.commit.committedInstType_0::SimdCvt         4652      0.01%     58.55% # Class of committed instruction (Count)
system.cpu0.commit.committedInstType_0::SimdMisc         3593      0.01%     58.55% # Class of committed instruction (Count)
system.cpu0.commit.committedInstType_0::SimdMult            0      0.00%     58.55% # Class of committed instruction (Count)
system.cpu0.commit.committedInstType_0::SimdMultAcc            0      0.00%     58.55% # Class of committed instruction (Count)
system.cpu0.commit.committedInstType_0::SimdShift          932      0.00%     58.55% # Class of committed instruction (Count)
system.cpu0.commit.committedInstType_0::SimdShiftAcc            0      0.00%     58.55% # Class of committed instruction (Count)
system.cpu0.commit.committedInstType_0::SimdDiv            0      0.00%     58.55% # Class of committed instruction (Count)
system.cpu0.commit.committedInstType_0::SimdSqrt            0      0.00%     58.55% # Class of committed instruction (Count)
system.cpu0.commit.committedInstType_0::SimdFloatAdd      7130264     12.87%     71.43% # Class of committed instruction (Count)
system.cpu0.commit.committedInstType_0::SimdFloatAlu            0      0.00%     71.43% # Class of committed instruction (Count)
system.cpu0.commit.committedInstType_0::SimdFloatCmp           24      0.00%     71.43% # Class of committed instruction (Count)
system.cpu0.commit.committedInstType_0::SimdFloatCvt      3007909      5.43%     76.86% # Class of committed instruction (Count)
system.cpu0.commit.committedInstType_0::SimdFloatDiv           15      0.00%     76.86% # Class of committed instruction (Count)
system.cpu0.commit.committedInstType_0::SimdFloatMisc            0      0.00%     76.86% # Class of committed instruction (Count)
system.cpu0.commit.committedInstType_0::SimdFloatMult      1002663      1.81%     78.67% # Class of committed instruction (Count)
system.cpu0.commit.committedInstType_0::SimdFloatMultAcc            0      0.00%     78.67% # Class of committed instruction (Count)
system.cpu0.commit.committedInstType_0::SimdFloatSqrt            0      0.00%     78.67% # Class of committed instruction (Count)
system.cpu0.commit.committedInstType_0::SimdReduceAdd            0      0.00%     78.67% # Class of committed instruction (Count)
system.cpu0.commit.committedInstType_0::SimdReduceAlu            0      0.00%     78.67% # Class of committed instruction (Count)
system.cpu0.commit.committedInstType_0::SimdReduceCmp            0      0.00%     78.67% # Class of committed instruction (Count)
system.cpu0.commit.committedInstType_0::SimdFloatReduceAdd            0      0.00%     78.67% # Class of committed instruction (Count)
system.cpu0.commit.committedInstType_0::SimdFloatReduceCmp            0      0.00%     78.67% # Class of committed instruction (Count)
system.cpu0.commit.committedInstType_0::SimdAes            0      0.00%     78.67% # Class of committed instruction (Count)
system.cpu0.commit.committedInstType_0::SimdAesMix            0      0.00%     78.67% # Class of committed instruction (Count)
system.cpu0.commit.committedInstType_0::SimdSha1Hash            0      0.00%     78.67% # Class of committed instruction (Count)
system.cpu0.commit.committedInstType_0::SimdSha1Hash2            0      0.00%     78.67% # Class of committed instruction (Count)
system.cpu0.commit.committedInstType_0::SimdSha256Hash            0      0.00%     78.67% # Class of committed instruction (Count)
system.cpu0.commit.committedInstType_0::SimdSha256Hash2            0      0.00%     78.67% # Class of committed instruction (Count)
system.cpu0.commit.committedInstType_0::SimdShaSigma2            0      0.00%     78.67% # Class of committed instruction (Count)
system.cpu0.commit.committedInstType_0::SimdShaSigma3            0      0.00%     78.67% # Class of committed instruction (Count)
system.cpu0.commit.committedInstType_0::SimdPredAlu            0      0.00%     78.67% # Class of committed instruction (Count)
system.cpu0.commit.committedInstType_0::MemRead       120739      0.22%     78.89% # Class of committed instruction (Count)
system.cpu0.commit.committedInstType_0::MemWrite       169075      0.31%     79.19% # Class of committed instruction (Count)
system.cpu0.commit.committedInstType_0::FloatMemRead      9145382     16.51%     95.70% # Class of committed instruction (Count)
system.cpu0.commit.committedInstType_0::FloatMemWrite      2380020      4.30%    100.00% # Class of committed instruction (Count)
system.cpu0.commit.committedInstType_0::IprAccess            0      0.00%    100.00% # Class of committed instruction (Count)
system.cpu0.commit.committedInstType_0::InstPrefetch            0      0.00%    100.00% # Class of committed instruction (Count)
system.cpu0.commit.committedInstType_0::total     55388612                       # Class of committed instruction (Count)
system.cpu0.commit.commitEligibleSamples      5085401                       # number cycles where commit BW limit reached (Cycle)
system.cpu0.dcache.demandHits::cpu0.data      7017468                       # number of demand (read+write) hits (Count)
system.cpu0.dcache.demandHits::total          7017468                       # number of demand (read+write) hits (Count)
system.cpu0.dcache.overallHits::cpu0.data      7017468                       # number of overall hits (Count)
system.cpu0.dcache.overallHits::total         7017468                       # number of overall hits (Count)
system.cpu0.dcache.demandMisses::cpu0.data      4851137                       # number of demand (read+write) misses (Count)
system.cpu0.dcache.demandMisses::total        4851137                       # number of demand (read+write) misses (Count)
system.cpu0.dcache.overallMisses::cpu0.data      4851137                       # number of overall misses (Count)
system.cpu0.dcache.overallMisses::total       4851137                       # number of overall misses (Count)
system.cpu0.dcache.demandMissLatency::cpu0.data 211176335245                       # number of demand (read+write) miss ticks (Tick)
system.cpu0.dcache.demandMissLatency::total 211176335245                       # number of demand (read+write) miss ticks (Tick)
system.cpu0.dcache.overallMissLatency::cpu0.data 211176335245                       # number of overall miss ticks (Tick)
system.cpu0.dcache.overallMissLatency::total 211176335245                       # number of overall miss ticks (Tick)
system.cpu0.dcache.demandAccesses::cpu0.data     11868605                       # number of demand (read+write) accesses (Count)
system.cpu0.dcache.demandAccesses::total     11868605                       # number of demand (read+write) accesses (Count)
system.cpu0.dcache.overallAccesses::cpu0.data     11868605                       # number of overall (read+write) accesses (Count)
system.cpu0.dcache.overallAccesses::total     11868605                       # number of overall (read+write) accesses (Count)
system.cpu0.dcache.demandMissRate::cpu0.data     0.408737                       # miss rate for demand accesses (Ratio)
system.cpu0.dcache.demandMissRate::total     0.408737                       # miss rate for demand accesses (Ratio)
system.cpu0.dcache.overallMissRate::cpu0.data     0.408737                       # miss rate for overall accesses (Ratio)
system.cpu0.dcache.overallMissRate::total     0.408737                       # miss rate for overall accesses (Ratio)
system.cpu0.dcache.demandAvgMissLatency::cpu0.data 43531.307247                       # average overall miss latency in ticks ((Tick/Count))
system.cpu0.dcache.demandAvgMissLatency::total 43531.307247                       # average overall miss latency in ticks ((Tick/Count))
system.cpu0.dcache.overallAvgMissLatency::cpu0.data 43531.307247                       # average overall miss latency ((Tick/Count))
system.cpu0.dcache.overallAvgMissLatency::total 43531.307247                       # average overall miss latency ((Tick/Count))
system.cpu0.dcache.blockedCycles::no_mshrs      4311075                       # number of cycles access was blocked (Cycle)
system.cpu0.dcache.blockedCycles::no_targets         5811                       # number of cycles access was blocked (Cycle)
system.cpu0.dcache.blockedCauses::no_mshrs       125841                       # number of times access was blocked (Count)
system.cpu0.dcache.blockedCauses::no_targets           28                       # number of times access was blocked (Count)
system.cpu0.dcache.avgBlocked::no_mshrs     34.258111                       # average number of cycles each access was blocked ((Cycle/Count))
system.cpu0.dcache.avgBlocked::no_targets   207.535714                       # average number of cycles each access was blocked ((Cycle/Count))
system.cpu0.dcache.writebacks::writebacks       314759                       # number of writebacks (Count)
system.cpu0.dcache.writebacks::total           314759                       # number of writebacks (Count)
system.cpu0.dcache.demandMshrHits::cpu0.data      3782111                       # number of demand (read+write) MSHR hits (Count)
system.cpu0.dcache.demandMshrHits::total      3782111                       # number of demand (read+write) MSHR hits (Count)
system.cpu0.dcache.overallMshrHits::cpu0.data      3782111                       # number of overall MSHR hits (Count)
system.cpu0.dcache.overallMshrHits::total      3782111                       # number of overall MSHR hits (Count)
system.cpu0.dcache.demandMshrMisses::cpu0.data      1069026                       # number of demand (read+write) MSHR misses (Count)
system.cpu0.dcache.demandMshrMisses::total      1069026                       # number of demand (read+write) MSHR misses (Count)
system.cpu0.dcache.overallMshrMisses::cpu0.data      1069026                       # number of overall MSHR misses (Count)
system.cpu0.dcache.overallMshrMisses::total      1069026                       # number of overall MSHR misses (Count)
system.cpu0.dcache.demandMshrMissLatency::cpu0.data  81200143745                       # number of demand (read+write) MSHR miss ticks (Tick)
system.cpu0.dcache.demandMshrMissLatency::total  81200143745                       # number of demand (read+write) MSHR miss ticks (Tick)
system.cpu0.dcache.overallMshrMissLatency::cpu0.data  81200143745                       # number of overall MSHR miss ticks (Tick)
system.cpu0.dcache.overallMshrMissLatency::total  81200143745                       # number of overall MSHR miss ticks (Tick)
system.cpu0.dcache.demandMshrMissRate::cpu0.data     0.090072                       # mshr miss ratio for demand accesses (Ratio)
system.cpu0.dcache.demandMshrMissRate::total     0.090072                       # mshr miss ratio for demand accesses (Ratio)
system.cpu0.dcache.overallMshrMissRate::cpu0.data     0.090072                       # mshr miss ratio for overall accesses (Ratio)
system.cpu0.dcache.overallMshrMissRate::total     0.090072                       # mshr miss ratio for overall accesses (Ratio)
system.cpu0.dcache.demandAvgMshrMissLatency::cpu0.data 75957.127090                       # average overall mshr miss latency ((Tick/Count))
system.cpu0.dcache.demandAvgMshrMissLatency::total 75957.127090                       # average overall mshr miss latency ((Tick/Count))
system.cpu0.dcache.overallAvgMshrMissLatency::cpu0.data 75957.127090                       # average overall mshr miss latency ((Tick/Count))
system.cpu0.dcache.overallAvgMshrMissLatency::total 75957.127090                       # average overall mshr miss latency ((Tick/Count))
system.cpu0.dcache.replacements               1067715                       # number of replacements (Count)
system.cpu0.dcache.LockedRMWReadReq.hits::cpu0.data          181                       # number of LockedRMWReadReq hits (Count)
system.cpu0.dcache.LockedRMWReadReq.hits::total          181                       # number of LockedRMWReadReq hits (Count)
system.cpu0.dcache.LockedRMWReadReq.misses::cpu0.data           41                       # number of LockedRMWReadReq misses (Count)
system.cpu0.dcache.LockedRMWReadReq.misses::total           41                       # number of LockedRMWReadReq misses (Count)
system.cpu0.dcache.LockedRMWReadReq.missLatency::cpu0.data       732000                       # number of LockedRMWReadReq miss ticks (Tick)
system.cpu0.dcache.LockedRMWReadReq.missLatency::total       732000                       # number of LockedRMWReadReq miss ticks (Tick)
system.cpu0.dcache.LockedRMWReadReq.accesses::cpu0.data          222                       # number of LockedRMWReadReq accesses(hits+misses) (Count)
system.cpu0.dcache.LockedRMWReadReq.accesses::total          222                       # number of LockedRMWReadReq accesses(hits+misses) (Count)
system.cpu0.dcache.LockedRMWReadReq.missRate::cpu0.data     0.184685                       # miss rate for LockedRMWReadReq accesses (Ratio)
system.cpu0.dcache.LockedRMWReadReq.missRate::total     0.184685                       # miss rate for LockedRMWReadReq accesses (Ratio)
system.cpu0.dcache.LockedRMWReadReq.avgMissLatency::cpu0.data 17853.658537                       # average LockedRMWReadReq miss latency ((Tick/Count))
system.cpu0.dcache.LockedRMWReadReq.avgMissLatency::total 17853.658537                       # average LockedRMWReadReq miss latency ((Tick/Count))
system.cpu0.dcache.LockedRMWReadReq.mshrMisses::cpu0.data           41                       # number of LockedRMWReadReq MSHR misses (Count)
system.cpu0.dcache.LockedRMWReadReq.mshrMisses::total           41                       # number of LockedRMWReadReq MSHR misses (Count)
system.cpu0.dcache.LockedRMWReadReq.mshrMissLatency::cpu0.data      1921250                       # number of LockedRMWReadReq MSHR miss ticks (Tick)
system.cpu0.dcache.LockedRMWReadReq.mshrMissLatency::total      1921250                       # number of LockedRMWReadReq MSHR miss ticks (Tick)
system.cpu0.dcache.LockedRMWReadReq.mshrMissRate::cpu0.data     0.184685                       # mshr miss rate for LockedRMWReadReq accesses (Ratio)
system.cpu0.dcache.LockedRMWReadReq.mshrMissRate::total     0.184685                       # mshr miss rate for LockedRMWReadReq accesses (Ratio)
system.cpu0.dcache.LockedRMWReadReq.avgMshrMissLatency::cpu0.data 46859.756098                       # average LockedRMWReadReq mshr miss latency ((Tick/Count))
system.cpu0.dcache.LockedRMWReadReq.avgMshrMissLatency::total 46859.756098                       # average LockedRMWReadReq mshr miss latency ((Tick/Count))
system.cpu0.dcache.LockedRMWWriteReq.hits::cpu0.data          222                       # number of LockedRMWWriteReq hits (Count)
system.cpu0.dcache.LockedRMWWriteReq.hits::total          222                       # number of LockedRMWWriteReq hits (Count)
system.cpu0.dcache.LockedRMWWriteReq.accesses::cpu0.data          222                       # number of LockedRMWWriteReq accesses(hits+misses) (Count)
system.cpu0.dcache.LockedRMWWriteReq.accesses::total          222                       # number of LockedRMWWriteReq accesses(hits+misses) (Count)
system.cpu0.dcache.ReadReq.hits::cpu0.data      4767527                       # number of ReadReq hits (Count)
system.cpu0.dcache.ReadReq.hits::total        4767527                       # number of ReadReq hits (Count)
system.cpu0.dcache.ReadReq.misses::cpu0.data      4552187                       # number of ReadReq misses (Count)
system.cpu0.dcache.ReadReq.misses::total      4552187                       # number of ReadReq misses (Count)
system.cpu0.dcache.ReadReq.missLatency::cpu0.data 189815368250                       # number of ReadReq miss ticks (Tick)
system.cpu0.dcache.ReadReq.missLatency::total 189815368250                       # number of ReadReq miss ticks (Tick)
system.cpu0.dcache.ReadReq.accesses::cpu0.data      9319714                       # number of ReadReq accesses(hits+misses) (Count)
system.cpu0.dcache.ReadReq.accesses::total      9319714                       # number of ReadReq accesses(hits+misses) (Count)
system.cpu0.dcache.ReadReq.missRate::cpu0.data     0.488447                       # miss rate for ReadReq accesses (Ratio)
system.cpu0.dcache.ReadReq.missRate::total     0.488447                       # miss rate for ReadReq accesses (Ratio)
system.cpu0.dcache.ReadReq.avgMissLatency::cpu0.data 41697.621001                       # average ReadReq miss latency ((Tick/Count))
system.cpu0.dcache.ReadReq.avgMissLatency::total 41697.621001                       # average ReadReq miss latency ((Tick/Count))
system.cpu0.dcache.ReadReq.mshrHits::cpu0.data      3782101                       # number of ReadReq MSHR hits (Count)
system.cpu0.dcache.ReadReq.mshrHits::total      3782101                       # number of ReadReq MSHR hits (Count)
system.cpu0.dcache.ReadReq.mshrMisses::cpu0.data       770086                       # number of ReadReq MSHR misses (Count)
system.cpu0.dcache.ReadReq.mshrMisses::total       770086                       # number of ReadReq MSHR misses (Count)
system.cpu0.dcache.ReadReq.mshrMissLatency::cpu0.data  59989176000                       # number of ReadReq MSHR miss ticks (Tick)
system.cpu0.dcache.ReadReq.mshrMissLatency::total  59989176000                       # number of ReadReq MSHR miss ticks (Tick)
system.cpu0.dcache.ReadReq.mshrMissRate::cpu0.data     0.082630                       # mshr miss rate for ReadReq accesses (Ratio)
system.cpu0.dcache.ReadReq.mshrMissRate::total     0.082630                       # mshr miss rate for ReadReq accesses (Ratio)
system.cpu0.dcache.ReadReq.avgMshrMissLatency::cpu0.data 77899.320336                       # average ReadReq mshr miss latency ((Tick/Count))
system.cpu0.dcache.ReadReq.avgMshrMissLatency::total 77899.320336                       # average ReadReq mshr miss latency ((Tick/Count))
system.cpu0.dcache.WriteReq.hits::cpu0.data      2249941                       # number of WriteReq hits (Count)
system.cpu0.dcache.WriteReq.hits::total       2249941                       # number of WriteReq hits (Count)
system.cpu0.dcache.WriteReq.misses::cpu0.data       298950                       # number of WriteReq misses (Count)
system.cpu0.dcache.WriteReq.misses::total       298950                       # number of WriteReq misses (Count)
system.cpu0.dcache.WriteReq.missLatency::cpu0.data  21360966995                       # number of WriteReq miss ticks (Tick)
system.cpu0.dcache.WriteReq.missLatency::total  21360966995                       # number of WriteReq miss ticks (Tick)
system.cpu0.dcache.WriteReq.accesses::cpu0.data      2548891                       # number of WriteReq accesses(hits+misses) (Count)
system.cpu0.dcache.WriteReq.accesses::total      2548891                       # number of WriteReq accesses(hits+misses) (Count)
system.cpu0.dcache.WriteReq.missRate::cpu0.data     0.117286                       # miss rate for WriteReq accesses (Ratio)
system.cpu0.dcache.WriteReq.missRate::total     0.117286                       # miss rate for WriteReq accesses (Ratio)
system.cpu0.dcache.WriteReq.avgMissLatency::cpu0.data 71453.309901                       # average WriteReq miss latency ((Tick/Count))
system.cpu0.dcache.WriteReq.avgMissLatency::total 71453.309901                       # average WriteReq miss latency ((Tick/Count))
system.cpu0.dcache.WriteReq.mshrHits::cpu0.data           10                       # number of WriteReq MSHR hits (Count)
system.cpu0.dcache.WriteReq.mshrHits::total           10                       # number of WriteReq MSHR hits (Count)
system.cpu0.dcache.WriteReq.mshrMisses::cpu0.data       298940                       # number of WriteReq MSHR misses (Count)
system.cpu0.dcache.WriteReq.mshrMisses::total       298940                       # number of WriteReq MSHR misses (Count)
system.cpu0.dcache.WriteReq.mshrMissLatency::cpu0.data  21210967745                       # number of WriteReq MSHR miss ticks (Tick)
system.cpu0.dcache.WriteReq.mshrMissLatency::total  21210967745                       # number of WriteReq MSHR miss ticks (Tick)
system.cpu0.dcache.WriteReq.mshrMissRate::cpu0.data     0.117282                       # mshr miss rate for WriteReq accesses (Ratio)
system.cpu0.dcache.WriteReq.mshrMissRate::total     0.117282                       # mshr miss rate for WriteReq accesses (Ratio)
system.cpu0.dcache.WriteReq.avgMshrMissLatency::cpu0.data 70953.929702                       # average WriteReq mshr miss latency ((Tick/Count))
system.cpu0.dcache.WriteReq.avgMshrMissLatency::total 70953.929702                       # average WriteReq mshr miss latency ((Tick/Count))
system.cpu0.dcache.power_state.pwrStateResidencyTicks::UNDEFINED  37045527500                       # Cumulative time (in ticks) in various power states (Tick)
system.cpu0.dcache.tags.tagsInUse         1022.381706                       # Average ticks per tags in use ((Tick/Count))
system.cpu0.dcache.tags.totalRefs             8086939                       # Total number of references to valid blocks. (Count)
system.cpu0.dcache.tags.sampledRefs           1068981                       # Sample count of references to valid blocks. (Count)
system.cpu0.dcache.tags.avgRefs              7.565091                       # Average number of references to valid blocks. ((Count/Count))
system.cpu0.dcache.tags.warmupTick             149000                       # The tick when the warmup percentage was hit. (Tick)
system.cpu0.dcache.tags.occupancies::cpu0.data  1022.381706                       # Average occupied blocks per tick, per requestor ((Count/Tick))
system.cpu0.dcache.tags.avgOccs::cpu0.data     0.998420                       # Average percentage of cache occupancy ((Ratio/Tick))
system.cpu0.dcache.tags.avgOccs::total       0.998420                       # Average percentage of cache occupancy ((Ratio/Tick))
system.cpu0.dcache.tags.occupanciesTaskId::1024         1024                       # Occupied blocks per task id (Count)
system.cpu0.dcache.tags.ageTaskId_1024::0          150                       # Occupied blocks per task id, per block age (Count)
system.cpu0.dcache.tags.ageTaskId_1024::1          873                       # Occupied blocks per task id, per block age (Count)
system.cpu0.dcache.tags.ageTaskId_1024::4            1                       # Occupied blocks per task id, per block age (Count)
system.cpu0.dcache.tags.ratioOccsTaskId::1024            1                       # Ratio of occupied blocks and all blocks, per task id (Ratio)
system.cpu0.dcache.tags.tagAccesses          24807079                       # Number of tag accesses (Count)
system.cpu0.dcache.tags.dataAccesses         24807079                       # Number of data accesses (Count)
system.cpu0.dcache.tags.power_state.pwrStateResidencyTicks::UNDEFINED  37045527500                       # Cumulative time (in ticks) in various power states (Tick)
system.cpu0.decode.idleCycles                 3442740                       # Number of cycles decode is idle (Cycle)
system.cpu0.decode.blockedCycles            136882058                       # Number of cycles decode is blocked (Cycle)
system.cpu0.decode.runCycles                  4378093                       # Number of cycles decode is running (Cycle)
system.cpu0.decode.unblockCycles              3077648                       # Number of cycles decode is unblocking (Cycle)
system.cpu0.decode.squashCycles                 12574                       # Number of cycles decode is squashing (Cycle)
system.cpu0.decode.branchResolved             2138277                       # Number of times decode resolved a branch (Count)
system.cpu0.decode.branchMispred                 1349                       # Number of times decode detected a branch misprediction (Count)
system.cpu0.decode.decodedInsts              56056296                       # Number of instructions handled by decode (Count)
system.cpu0.decode.squashedInsts                 6520                       # Number of squashed instructions handled by decode (Count)
system.cpu0.dtb_walker_cache.blockedCycles::no_mshrs            0                       # number of cycles access was blocked (Cycle)
system.cpu0.dtb_walker_cache.blockedCycles::no_targets            0                       # number of cycles access was blocked (Cycle)
system.cpu0.dtb_walker_cache.blockedCauses::no_mshrs            0                       # number of times access was blocked (Count)
system.cpu0.dtb_walker_cache.blockedCauses::no_targets            0                       # number of times access was blocked (Count)
system.cpu0.dtb_walker_cache.avgBlocked::no_mshrs          nan                       # average number of cycles each access was blocked ((Cycle/Count))
system.cpu0.dtb_walker_cache.avgBlocked::no_targets          nan                       # average number of cycles each access was blocked ((Cycle/Count))
system.cpu0.dtb_walker_cache.replacements            0                       # number of replacements (Count)
system.cpu0.dtb_walker_cache.power_state.pwrStateResidencyTicks::UNDEFINED  37045527500                       # Cumulative time (in ticks) in various power states (Tick)
system.cpu0.dtb_walker_cache.tags.tagsInUse            0                       # Average ticks per tags in use ((Tick/Count))
system.cpu0.dtb_walker_cache.tags.totalRefs            0                       # Total number of references to valid blocks. (Count)
system.cpu0.dtb_walker_cache.tags.sampledRefs            0                       # Sample count of references to valid blocks. (Count)
system.cpu0.dtb_walker_cache.tags.avgRefs          nan                       # Average number of references to valid blocks. ((Count/Count))
system.cpu0.dtb_walker_cache.tags.warmupTick            0                       # The tick when the warmup percentage was hit. (Tick)
system.cpu0.dtb_walker_cache.tags.tagAccesses            0                       # Number of tag accesses (Count)
system.cpu0.dtb_walker_cache.tags.dataAccesses            0                       # Number of data accesses (Count)
system.cpu0.dtb_walker_cache.tags.power_state.pwrStateResidencyTicks::UNDEFINED  37045527500                       # Cumulative time (in ticks) in various power states (Tick)
system.cpu0.fetch.icacheStallCycles           4582872                       # Number of cycles fetch is stalled on an Icache miss (Cycle)
system.cpu0.fetch.insts                      30861660                       # Number of instructions fetch has processed (Count)
system.cpu0.fetch.branches                    5277444                       # Number of branches that fetch encountered (Count)
system.cpu0.fetch.predictedBranches           2167401                       # Number of branches that fetch has predicted taken (Count)
system.cpu0.fetch.cycles                    143183623                       # Number of cycles fetch has run and was not squashing or blocked (Cycle)
system.cpu0.fetch.squashCycles                  27806                       # Number of cycles fetch has spent squashing (Cycle)
system.cpu0.fetch.miscStallCycles                1618                       # Number of cycles fetch has spent waiting on interrupts, or bad addresses, or out of MSHRs (Cycle)
system.cpu0.fetch.pendingTrapStallCycles        11038                       # Number of stall cycles due to pending traps (Cycle)
system.cpu0.fetch.icacheWaitRetryStallCycles           59                       # Number of stall cycles due to full MSHR (Cycle)
system.cpu0.fetch.cacheLines                  4465098                       # Number of cache lines fetched (Count)
system.cpu0.fetch.icacheSquashes                 3430                       # Number of outstanding Icache misses that were squashed (Count)
system.cpu0.fetch.nisnDist::samples         147793113                       # Number of instructions fetched each cycle (Total) (Count)
system.cpu0.fetch.nisnDist::mean             0.379973                       # Number of instructions fetched each cycle (Total) (Count)
system.cpu0.fetch.nisnDist::stdev            1.608811                       # Number of instructions fetched each cycle (Total) (Count)
system.cpu0.fetch.nisnDist::underflows              0      0.00%      0.00% # Number of instructions fetched each cycle (Total) (Count)
system.cpu0.fetch.nisnDist::0               138498091     93.71%     93.71% # Number of instructions fetched each cycle (Total) (Count)
system.cpu0.fetch.nisnDist::1                  981229      0.66%     94.37% # Number of instructions fetched each cycle (Total) (Count)
system.cpu0.fetch.nisnDist::2                  316397      0.21%     94.59% # Number of instructions fetched each cycle (Total) (Count)
system.cpu0.fetch.nisnDist::3                 1348442      0.91%     95.50% # Number of instructions fetched each cycle (Total) (Count)
system.cpu0.fetch.nisnDist::4                  192258      0.13%     95.63% # Number of instructions fetched each cycle (Total) (Count)
system.cpu0.fetch.nisnDist::5                  275552      0.19%     95.82% # Number of instructions fetched each cycle (Total) (Count)
system.cpu0.fetch.nisnDist::6                  197751      0.13%     95.95% # Number of instructions fetched each cycle (Total) (Count)
system.cpu0.fetch.nisnDist::7                  702436      0.48%     96.43% # Number of instructions fetched each cycle (Total) (Count)
system.cpu0.fetch.nisnDist::8                 5280957      3.57%    100.00% # Number of instructions fetched each cycle (Total) (Count)
system.cpu0.fetch.nisnDist::overflows               0      0.00%    100.00% # Number of instructions fetched each cycle (Total) (Count)
system.cpu0.fetch.nisnDist::min_value               0                       # Number of instructions fetched each cycle (Total) (Count)
system.cpu0.fetch.nisnDist::max_value               8                       # Number of instructions fetched each cycle (Total) (Count)
system.cpu0.fetch.nisnDist::total           147793113                       # Number of instructions fetched each cycle (Total) (Count)
system.cpu0.fetch.branchRate                 0.035615                       # Number of branch fetches per cycle (Ratio)
system.cpu0.fetch.rate                       0.208268                       # Number of inst fetches per cycle ((Count/Cycle))
system.cpu0.icache.demandHits::cpu0.inst      4461619                       # number of demand (read+write) hits (Count)
system.cpu0.icache.demandHits::total          4461619                       # number of demand (read+write) hits (Count)
system.cpu0.icache.overallHits::cpu0.inst      4461619                       # number of overall hits (Count)
system.cpu0.icache.overallHits::total         4461619                       # number of overall hits (Count)
system.cpu0.icache.demandMisses::cpu0.inst         3479                       # number of demand (read+write) misses (Count)
system.cpu0.icache.demandMisses::total           3479                       # number of demand (read+write) misses (Count)
system.cpu0.icache.overallMisses::cpu0.inst         3479                       # number of overall misses (Count)
system.cpu0.icache.overallMisses::total          3479                       # number of overall misses (Count)
system.cpu0.icache.demandMissLatency::cpu0.inst    215252499                       # number of demand (read+write) miss ticks (Tick)
system.cpu0.icache.demandMissLatency::total    215252499                       # number of demand (read+write) miss ticks (Tick)
system.cpu0.icache.overallMissLatency::cpu0.inst    215252499                       # number of overall miss ticks (Tick)
system.cpu0.icache.overallMissLatency::total    215252499                       # number of overall miss ticks (Tick)
system.cpu0.icache.demandAccesses::cpu0.inst      4465098                       # number of demand (read+write) accesses (Count)
system.cpu0.icache.demandAccesses::total      4465098                       # number of demand (read+write) accesses (Count)
system.cpu0.icache.overallAccesses::cpu0.inst      4465098                       # number of overall (read+write) accesses (Count)
system.cpu0.icache.overallAccesses::total      4465098                       # number of overall (read+write) accesses (Count)
system.cpu0.icache.demandMissRate::cpu0.inst     0.000779                       # miss rate for demand accesses (Ratio)
system.cpu0.icache.demandMissRate::total     0.000779                       # miss rate for demand accesses (Ratio)
system.cpu0.icache.overallMissRate::cpu0.inst     0.000779                       # miss rate for overall accesses (Ratio)
system.cpu0.icache.overallMissRate::total     0.000779                       # miss rate for overall accesses (Ratio)
system.cpu0.icache.demandAvgMissLatency::cpu0.inst 61871.945674                       # average overall miss latency in ticks ((Tick/Count))
system.cpu0.icache.demandAvgMissLatency::total 61871.945674                       # average overall miss latency in ticks ((Tick/Count))
system.cpu0.icache.overallAvgMissLatency::cpu0.inst 61871.945674                       # average overall miss latency ((Tick/Count))
system.cpu0.icache.overallAvgMissLatency::total 61871.945674                       # average overall miss latency ((Tick/Count))
system.cpu0.icache.blockedCycles::no_mshrs          925                       # number of cycles access was blocked (Cycle)
system.cpu0.icache.blockedCycles::no_targets            0                       # number of cycles access was blocked (Cycle)
system.cpu0.icache.blockedCauses::no_mshrs           11                       # number of times access was blocked (Count)
system.cpu0.icache.blockedCauses::no_targets            0                       # number of times access was blocked (Count)
system.cpu0.icache.avgBlocked::no_mshrs     84.090909                       # average number of cycles each access was blocked ((Cycle/Count))
system.cpu0.icache.avgBlocked::no_targets          nan                       # average number of cycles each access was blocked ((Cycle/Count))
system.cpu0.icache.writebacks::writebacks         2233                       # number of writebacks (Count)
system.cpu0.icache.writebacks::total             2233                       # number of writebacks (Count)
system.cpu0.icache.demandMshrHits::cpu0.inst          732                       # number of demand (read+write) MSHR hits (Count)
system.cpu0.icache.demandMshrHits::total          732                       # number of demand (read+write) MSHR hits (Count)
system.cpu0.icache.overallMshrHits::cpu0.inst          732                       # number of overall MSHR hits (Count)
system.cpu0.icache.overallMshrHits::total          732                       # number of overall MSHR hits (Count)
system.cpu0.icache.demandMshrMisses::cpu0.inst         2747                       # number of demand (read+write) MSHR misses (Count)
system.cpu0.icache.demandMshrMisses::total         2747                       # number of demand (read+write) MSHR misses (Count)
system.cpu0.icache.overallMshrMisses::cpu0.inst         2747                       # number of overall MSHR misses (Count)
system.cpu0.icache.overallMshrMisses::total         2747                       # number of overall MSHR misses (Count)
system.cpu0.icache.demandMshrMissLatency::cpu0.inst    174206249                       # number of demand (read+write) MSHR miss ticks (Tick)
system.cpu0.icache.demandMshrMissLatency::total    174206249                       # number of demand (read+write) MSHR miss ticks (Tick)
system.cpu0.icache.overallMshrMissLatency::cpu0.inst    174206249                       # number of overall MSHR miss ticks (Tick)
system.cpu0.icache.overallMshrMissLatency::total    174206249                       # number of overall MSHR miss ticks (Tick)
system.cpu0.icache.demandMshrMissRate::cpu0.inst     0.000615                       # mshr miss ratio for demand accesses (Ratio)
system.cpu0.icache.demandMshrMissRate::total     0.000615                       # mshr miss ratio for demand accesses (Ratio)
system.cpu0.icache.overallMshrMissRate::cpu0.inst     0.000615                       # mshr miss ratio for overall accesses (Ratio)
system.cpu0.icache.overallMshrMissRate::total     0.000615                       # mshr miss ratio for overall accesses (Ratio)
system.cpu0.icache.demandAvgMshrMissLatency::cpu0.inst 63416.908992                       # average overall mshr miss latency ((Tick/Count))
system.cpu0.icache.demandAvgMshrMissLatency::total 63416.908992                       # average overall mshr miss latency ((Tick/Count))
system.cpu0.icache.overallAvgMshrMissLatency::cpu0.inst 63416.908992                       # average overall mshr miss latency ((Tick/Count))
system.cpu0.icache.overallAvgMshrMissLatency::total 63416.908992                       # average overall mshr miss latency ((Tick/Count))
system.cpu0.icache.replacements                  2233                       # number of replacements (Count)
system.cpu0.icache.ReadReq.hits::cpu0.inst      4461619                       # number of ReadReq hits (Count)
system.cpu0.icache.ReadReq.hits::total        4461619                       # number of ReadReq hits (Count)
system.cpu0.icache.ReadReq.misses::cpu0.inst         3479                       # number of ReadReq misses (Count)
system.cpu0.icache.ReadReq.misses::total         3479                       # number of ReadReq misses (Count)
system.cpu0.icache.ReadReq.missLatency::cpu0.inst    215252499                       # number of ReadReq miss ticks (Tick)
system.cpu0.icache.ReadReq.missLatency::total    215252499                       # number of ReadReq miss ticks (Tick)
system.cpu0.icache.ReadReq.accesses::cpu0.inst      4465098                       # number of ReadReq accesses(hits+misses) (Count)
system.cpu0.icache.ReadReq.accesses::total      4465098                       # number of ReadReq accesses(hits+misses) (Count)
system.cpu0.icache.ReadReq.missRate::cpu0.inst     0.000779                       # miss rate for ReadReq accesses (Ratio)
system.cpu0.icache.ReadReq.missRate::total     0.000779                       # miss rate for ReadReq accesses (Ratio)
system.cpu0.icache.ReadReq.avgMissLatency::cpu0.inst 61871.945674                       # average ReadReq miss latency ((Tick/Count))
system.cpu0.icache.ReadReq.avgMissLatency::total 61871.945674                       # average ReadReq miss latency ((Tick/Count))
system.cpu0.icache.ReadReq.mshrHits::cpu0.inst          732                       # number of ReadReq MSHR hits (Count)
system.cpu0.icache.ReadReq.mshrHits::total          732                       # number of ReadReq MSHR hits (Count)
system.cpu0.icache.ReadReq.mshrMisses::cpu0.inst         2747                       # number of ReadReq MSHR misses (Count)
system.cpu0.icache.ReadReq.mshrMisses::total         2747                       # number of ReadReq MSHR misses (Count)
system.cpu0.icache.ReadReq.mshrMissLatency::cpu0.inst    174206249                       # number of ReadReq MSHR miss ticks (Tick)
system.cpu0.icache.ReadReq.mshrMissLatency::total    174206249                       # number of ReadReq MSHR miss ticks (Tick)
system.cpu0.icache.ReadReq.mshrMissRate::cpu0.inst     0.000615                       # mshr miss rate for ReadReq accesses (Ratio)
system.cpu0.icache.ReadReq.mshrMissRate::total     0.000615                       # mshr miss rate for ReadReq accesses (Ratio)
system.cpu0.icache.ReadReq.avgMshrMissLatency::cpu0.inst 63416.908992                       # average ReadReq mshr miss latency ((Tick/Count))
system.cpu0.icache.ReadReq.avgMshrMissLatency::total 63416.908992                       # average ReadReq mshr miss latency ((Tick/Count))
system.cpu0.icache.power_state.pwrStateResidencyTicks::UNDEFINED  37045527500                       # Cumulative time (in ticks) in various power states (Tick)
system.cpu0.icache.tags.tagsInUse          511.534746                       # Average ticks per tags in use ((Tick/Count))
system.cpu0.icache.tags.totalRefs             4464365                       # Total number of references to valid blocks. (Count)
system.cpu0.icache.tags.sampledRefs              2746                       # Sample count of references to valid blocks. (Count)
system.cpu0.icache.tags.avgRefs           1625.770211                       # Average number of references to valid blocks. ((Count/Count))
system.cpu0.icache.tags.warmupTick              80000                       # The tick when the warmup percentage was hit. (Tick)
system.cpu0.icache.tags.occupancies::cpu0.inst   511.534746                       # Average occupied blocks per tick, per requestor ((Count/Tick))
system.cpu0.icache.tags.avgOccs::cpu0.inst     0.999091                       # Average percentage of cache occupancy ((Ratio/Tick))
system.cpu0.icache.tags.avgOccs::total       0.999091                       # Average percentage of cache occupancy ((Ratio/Tick))
system.cpu0.icache.tags.occupanciesTaskId::1024          512                       # Occupied blocks per task id (Count)
system.cpu0.icache.tags.ageTaskId_1024::0          113                       # Occupied blocks per task id, per block age (Count)
system.cpu0.icache.tags.ageTaskId_1024::1           67                       # Occupied blocks per task id, per block age (Count)
system.cpu0.icache.tags.ageTaskId_1024::4          332                       # Occupied blocks per task id, per block age (Count)
system.cpu0.icache.tags.ratioOccsTaskId::1024            1                       # Ratio of occupied blocks and all blocks, per task id (Ratio)
system.cpu0.icache.tags.tagAccesses           8932942                       # Number of tag accesses (Count)
system.cpu0.icache.tags.dataAccesses          8932942                       # Number of data accesses (Count)
system.cpu0.icache.tags.power_state.pwrStateResidencyTicks::UNDEFINED  37045527500                       # Cumulative time (in ticks) in various power states (Tick)
system.cpu0.iew.idleCycles                          0                       # Number of cycles IEW is idle (Cycle)
system.cpu0.iew.squashCycles                    12574                       # Number of cycles IEW is squashing (Cycle)
system.cpu0.iew.blockCycles                  30226069                       # Number of cycles IEW is blocking (Cycle)
system.cpu0.iew.unblockCycles                19582733                       # Number of cycles IEW is unblocking (Cycle)
system.cpu0.iew.dispatchedInsts              55961164                       # Number of instructions dispatched to IQ (Count)
system.cpu0.iew.dispSquashedInsts                1043                       # Number of squashed instructions skipped by dispatch (Count)
system.cpu0.iew.dispLoadInsts                 9348442                       # Number of dispatched load instructions (Count)
system.cpu0.iew.dispStoreInsts                2571249                       # Number of dispatched store instructions (Count)
system.cpu0.iew.dispNonSpecInsts                  574                       # Number of dispatched non-speculative instructions (Count)
system.cpu0.iew.iqFullEvents                   740286                       # Number of times the IQ has become full, causing a stall (Count)
system.cpu0.iew.lsqFullEvents                18823802                       # Number of times the LSQ has become full, causing a stall (Count)
system.cpu0.iew.memOrderViolationEvents           323                       # Number of memory order violations (Count)
system.cpu0.iew.predictedTakenIncorrect          2763                       # Number of branches that were predicted taken incorrectly (Count)
system.cpu0.iew.predictedNotTakenIncorrect         8008                       # Number of branches that were predicted not taken incorrectly (Count)
system.cpu0.iew.branchMispredicts               10771                       # Number of branch mispredicts detected at execute (Count)
system.cpu0.iew.instsToCommit                55790027                       # Cumulative count of insts sent to commit (Count)
system.cpu0.iew.writebackCount               55781234                       # Cumulative count of insts written-back (Count)
system.cpu0.iew.producerInst                 39958499                       # Number of instructions producing a value (Count)
system.cpu0.iew.consumerInst                 64991309                       # Number of instructions consuming a value (Count)
system.cpu0.iew.wbRate                       0.376437                       # Insts written-back per cycle ((Count/Cycle))
system.cpu0.iew.wbFanout                     0.614828                       # Average fanout of values written-back ((Count/Count))
system.cpu0.interrupts.clk_domain.clock          4000                       # Clock period in ticks (Tick)
system.cpu0.itb_walker_cache.blockedCycles::no_mshrs            0                       # number of cycles access was blocked (Cycle)
system.cpu0.itb_walker_cache.blockedCycles::no_targets            0                       # number of cycles access was blocked (Cycle)
system.cpu0.itb_walker_cache.blockedCauses::no_mshrs            0                       # number of times access was blocked (Count)
system.cpu0.itb_walker_cache.blockedCauses::no_targets            0                       # number of times access was blocked (Count)
system.cpu0.itb_walker_cache.avgBlocked::no_mshrs          nan                       # average number of cycles each access was blocked ((Cycle/Count))
system.cpu0.itb_walker_cache.avgBlocked::no_targets          nan                       # average number of cycles each access was blocked ((Cycle/Count))
system.cpu0.itb_walker_cache.replacements            0                       # number of replacements (Count)
system.cpu0.itb_walker_cache.power_state.pwrStateResidencyTicks::UNDEFINED  37045527500                       # Cumulative time (in ticks) in various power states (Tick)
system.cpu0.itb_walker_cache.tags.tagsInUse            0                       # Average ticks per tags in use ((Tick/Count))
system.cpu0.itb_walker_cache.tags.totalRefs            0                       # Total number of references to valid blocks. (Count)
[...]
system.membus.pktSize_system.cpu6.dcache.mem_side_port::system.mem_ctrls15.port      4001344                       # Cumulative packet size per connected requestor and responder (Byte)
system.membus.pktSize_system.cpu6.dcache.mem_side_port::total     64009600                       # Cumulative packet size per connected requestor and responder (Byte)
system.membus.pktSize_system.cpu7.icache.mem_side_port::system.mem_ctrls00.port          320                       # Cumulative packet size per connected requestor and responder (Byte)
system.membus.pktSize_system.cpu7.icache.mem_side_port::system.mem_ctrls01.port          192                       # Cumulative packet size per connected requestor and responder (Byte)
system.membus.pktSize_system.cpu7.icache.mem_side_port::system.mem_ctrls02.port          256                       # Cumulative packet size per connected requestor and responder (Byte)
system.membus.pktSize_system.cpu7.icache.mem_side_port::system.mem_ctrls03.port          256                       # Cumulative packet size per connected requestor and responder (Byte)
system.membus.pktSize_system.cpu7.icache.mem_side_port::system.mem_ctrls04.port          192                       # Cumulative packet size per connected requestor and responder (Byte)
system.membus.pktSize_system.cpu7.icache.mem_side_port::system.mem_ctrls05.port          256                       # Cumulative packet size per connected requestor and responder (Byte)
system.membus.pktSize_system.cpu7.icache.mem_side_port::system.mem_ctrls06.port          384                       # Cumulative packet size per connected requestor and responder (Byte)
system.membus.pktSize_system.cpu7.icache.mem_side_port::system.mem_ctrls07.port          192                       # Cumulative packet size per connected requestor and responder (Byte)
system.membus.pktSize_system.cpu7.icache.mem_side_port::system.mem_ctrls08.port          320                       # Cumulative packet size per connected requestor and responder (Byte)
system.membus.pktSize_system.cpu7.icache.mem_side_port::system.mem_ctrls09.port          256                       # Cumulative packet size per connected requestor and responder (Byte)
system.membus.pktSize_system.cpu7.icache.mem_side_port::system.mem_ctrls10.port          256                       # Cumulative packet size per connected requestor and responder (Byte)
system.membus.pktSize_system.cpu7.icache.mem_side_port::system.mem_ctrls11.port          192                       # Cumulative packet size per connected requestor and responder (Byte)
system.membus.pktSize_system.cpu7.icache.mem_side_port::system.mem_ctrls12.port          192                       # Cumulative packet size per connected requestor and responder (Byte)
system.membus.pktSize_system.cpu7.icache.mem_side_port::system.mem_ctrls13.port          256                       # Cumulative packet size per connected requestor and responder (Byte)
system.membus.pktSize_system.cpu7.icache.mem_side_port::system.mem_ctrls14.port          256                       # Cumulative packet size per connected requestor and responder (Byte)
system.membus.pktSize_system.cpu7.icache.mem_side_port::system.mem_ctrls15.port          256                       # Cumulative packet size per connected requestor and responder (Byte)
system.membus.pktSize_system.cpu7.icache.mem_side_port::total         4032                       # Cumulative packet size per connected requestor and responder (Byte)
system.membus.pktSize_system.cpu7.dcache.mem_side_port::system.mem_ctrls00.port      3998656                       # Cumulative packet size per connected requestor and responder (Byte)
system.membus.pktSize_system.cpu7.dcache.mem_side_port::system.mem_ctrls01.port      4001728                       # Cumulative packet size per connected requestor and responder (Byte)
system.membus.pktSize_system.cpu7.dcache.mem_side_port::system.mem_ctrls02.port      4001536                       # Cumulative packet size per connected requestor and responder (Byte)
system.membus.pktSize_system.cpu7.dcache.mem_side_port::system.mem_ctrls03.port      4000320                       # Cumulative packet size per connected requestor and responder (Byte)
system.membus.pktSize_system.cpu7.dcache.mem_side_port::system.mem_ctrls04.port      4000384                       # Cumulative packet size per connected requestor and responder (Byte)
system.membus.pktSize_system.cpu7.dcache.mem_side_port::system.mem_ctrls05.port      4000128                       # Cumulative packet size per connected requestor and responder (Byte)
system.membus.pktSize_system.cpu7.dcache.mem_side_port::system.mem_ctrls06.port      4000064                       # Cumulative packet size per connected requestor and responder (Byte)
system.membus.pktSize_system.cpu7.dcache.mem_side_port::system.mem_ctrls07.port      4000256                       # Cumulative packet size per connected requestor and responder (Byte)
system.membus.pktSize_system.cpu7.dcache.mem_side_port::system.mem_ctrls08.port      4002624                       # Cumulative packet size per connected requestor and responder (Byte)
system.membus.pktSize_system.cpu7.dcache.mem_side_port::system.mem_ctrls09.port      4001152                       # Cumulative packet size per connected requestor and responder (Byte)
system.membus.pktSize_system.cpu7.dcache.mem_side_port::system.mem_ctrls10.port      4002560                       # Cumulative packet size per connected requestor and responder (Byte)
system.membus.pktSize_system.cpu7.dcache.mem_side_port::system.mem_ctrls11.port      3999616                       # Cumulative packet size per connected requestor and responder (Byte)
system.membus.pktSize_system.cpu7.dcache.mem_side_port::system.mem_ctrls12.port      3999552                       # Cumulative packet size per connected requestor and responder (Byte)
system.membus.pktSize_system.cpu7.dcache.mem_side_port::system.mem_ctrls13.port      3999552                       # Cumulative packet size per connected requestor and responder (Byte)
system.membus.pktSize_system.cpu7.dcache.mem_side_port::system.mem_ctrls14.port      4000960                       # Cumulative packet size per connected requestor and responder (Byte)
system.membus.pktSize_system.cpu7.dcache.mem_side_port::system.mem_ctrls15.port      3999488                       # Cumulative packet size per connected requestor and responder (Byte)
system.membus.pktSize_system.cpu7.dcache.mem_side_port::total     64008576                       # Cumulative packet size per connected requestor and responder (Byte)
system.membus.pktSize::total                536926848                       # Cumulative packet size per connected requestor and responder (Byte)
system.membus.snoops                             2582                       # Total snoops (Count)
system.membus.snoopTraffic                     152576                       # Total snoop traffic (Byte)
system.membus.snoopFanout::samples            5888114                       # Request fanout histogram (Count)
system.membus.snoopFanout::mean              0.003120                       # Request fanout histogram (Count)
system.membus.snoopFanout::stdev             0.101817                       # Request fanout histogram (Count)
system.membus.snoopFanout::underflows               0      0.00%      0.00% # Request fanout histogram (Count)
system.membus.snoopFanout::0                  5877314     99.82%     99.82% # Request fanout histogram (Count)
system.membus.snoopFanout::1                     8694      0.15%     99.96% # Request fanout histogram (Count)
system.membus.snoopFanout::2                      428      0.01%     99.97% # Request fanout histogram (Count)
system.membus.snoopFanout::3                      382      0.01%     99.98% # Request fanout histogram (Count)
system.membus.snoopFanout::4                      242      0.00%     99.98% # Request fanout histogram (Count)
system.membus.snoopFanout::5                      234      0.00%     99.99% # Request fanout histogram (Count)
system.membus.snoopFanout::6                      217      0.00%     99.99% # Request fanout histogram (Count)
system.membus.snoopFanout::7                      595      0.01%    100.00% # Request fanout histogram (Count)
system.membus.snoopFanout::8                        6      0.00%    100.00% # Request fanout histogram (Count)
system.membus.snoopFanout::9                        1      0.00%    100.00% # Request fanout histogram (Count)
system.membus.snoopFanout::10                       1      0.00%    100.00% # Request fanout histogram (Count)
system.membus.snoopFanout::11                       0      0.00%    100.00% # Request fanout histogram (Count)
system.membus.snoopFanout::12                       0      0.00%    100.00% # Request fanout histogram (Count)
system.membus.snoopFanout::13                       0      0.00%    100.00% # Request fanout histogram (Count)
system.membus.snoopFanout::14                       0      0.00%    100.00% # Request fanout histogram (Count)
system.membus.snoopFanout::15                       0      0.00%    100.00% # Request fanout histogram (Count)
system.membus.snoopFanout::16                       0      0.00%    100.00% # Request fanout histogram (Count)
system.membus.snoopFanout::17                       0      0.00%    100.00% # Request fanout histogram (Count)
system.membus.snoopFanout::18                       0      0.00%    100.00% # Request fanout histogram (Count)
system.membus.snoopFanout::19                       0      0.00%    100.00% # Request fanout histogram (Count)
system.membus.snoopFanout::20                       0      0.00%    100.00% # Request fanout histogram (Count)
system.membus.snoopFanout::21                       0      0.00%    100.00% # Request fanout histogram (Count)
system.membus.snoopFanout::22                       0      0.00%    100.00% # Request fanout histogram (Count)
system.membus.snoopFanout::23                       0      0.00%    100.00% # Request fanout histogram (Count)
system.membus.snoopFanout::24                       0      0.00%    100.00% # Request fanout histogram (Count)
system.membus.snoopFanout::25                       0      0.00%    100.00% # Request fanout histogram (Count)
system.membus.snoopFanout::26                       0      0.00%    100.00% # Request fanout histogram (Count)
system.membus.snoopFanout::27                       0      0.00%    100.00% # Request fanout histogram (Count)
system.membus.snoopFanout::28                       0      0.00%    100.00% # Request fanout histogram (Count)
system.membus.snoopFanout::29                       0      0.00%    100.00% # Request fanout histogram (Count)
system.membus.snoopFanout::30                       0      0.00%    100.00% # Request fanout histogram (Count)
system.membus.snoopFanout::31                       0      0.00%    100.00% # Request fanout histogram (Count)
system.membus.snoopFanout::32                       0      0.00%    100.00% # Request fanout histogram (Count)
system.membus.snoopFanout::overflows                0      0.00%    100.00% # Request fanout histogram (Count)
system.membus.snoopFanout::min_value                0                       # Request fanout histogram (Count)
system.membus.snoopFanout::max_value               10                       # Request fanout histogram (Count)
system.membus.snoopFanout::total              5888114                       # Request fanout histogram (Count)
system.membus.power_state.pwrStateResidencyTicks::UNDEFINED  37045527500                       # Cumulative time (in ticks) in various power states (Tick)
system.membus.reqLayer16.occupancy         1669017778                       # Layer occupancy (ticks) (Tick)
system.membus.reqLayer16.utilization              0.0                       # Layer utilization (Ratio)
system.membus.reqLayer17.occupancy         1668827187                       # Layer occupancy (ticks) (Tick)
system.membus.reqLayer17.utilization              0.0                       # Layer utilization (Ratio)
system.membus.reqLayer18.occupancy         1669064521                       # Layer occupancy (ticks) (Tick)
system.membus.reqLayer18.utilization              0.0                       # Layer utilization (Ratio)
system.membus.reqLayer19.occupancy         1668898093                       # Layer occupancy (ticks) (Tick)
system.membus.reqLayer19.utilization              0.0                       # Layer utilization (Ratio)
system.membus.reqLayer20.occupancy         1668793227                       # Layer occupancy (ticks) (Tick)
system.membus.reqLayer20.utilization              0.0                       # Layer utilization (Ratio)
system.membus.reqLayer21.occupancy         1668668317                       # Layer occupancy (ticks) (Tick)
system.membus.reqLayer21.utilization              0.0                       # Layer utilization (Ratio)
system.membus.reqLayer22.occupancy         1668609705                       # Layer occupancy (ticks) (Tick)
system.membus.reqLayer22.utilization              0.0                       # Layer utilization (Ratio)
system.membus.reqLayer23.occupancy         1668379275                       # Layer occupancy (ticks) (Tick)
system.membus.reqLayer23.utilization              0.0                       # Layer utilization (Ratio)
system.membus.reqLayer24.occupancy         1669456266                       # Layer occupancy (ticks) (Tick)
system.membus.reqLayer24.utilization              0.0                       # Layer utilization (Ratio)
system.membus.reqLayer25.occupancy         1668294226                       # Layer occupancy (ticks) (Tick)
system.membus.reqLayer25.utilization              0.0                       # Layer utilization (Ratio)
system.membus.reqLayer26.occupancy         1669587660                       # Layer occupancy (ticks) (Tick)
system.membus.reqLayer26.utilization              0.0                       # Layer utilization (Ratio)
system.membus.reqLayer27.occupancy         1669952573                       # Layer occupancy (ticks) (Tick)
system.membus.reqLayer27.utilization              0.0                       # Layer utilization (Ratio)
system.membus.reqLayer28.occupancy         1668556426                       # Layer occupancy (ticks) (Tick)
system.membus.reqLayer28.utilization              0.0                       # Layer utilization (Ratio)
system.membus.reqLayer29.occupancy         1668832519                       # Layer occupancy (ticks) (Tick)
system.membus.reqLayer29.utilization              0.0                       # Layer utilization (Ratio)
system.membus.reqLayer30.occupancy         1669572561                       # Layer occupancy (ticks) (Tick)
system.membus.reqLayer30.utilization              0.0                       # Layer utilization (Ratio)
system.membus.reqLayer31.occupancy         1669315637                       # Layer occupancy (ticks) (Tick)
system.membus.reqLayer31.utilization              0.0                       # Layer utilization (Ratio)
system.membus.respLayer1.occupancy           13796496                       # Layer occupancy (ticks) (Tick)
system.membus.respLayer1.utilization              0.0                       # Layer utilization (Ratio)
system.membus.respLayer11.occupancy            702750                       # Layer occupancy (ticks) (Tick)
system.membus.respLayer11.utilization             0.0                       # Layer utilization (Ratio)
system.membus.respLayer12.occupancy        3464204350                       # Layer occupancy (ticks) (Tick)
system.membus.respLayer12.utilization             0.1                       # Layer utilization (Ratio)
system.membus.respLayer16.occupancy            668249                       # Layer occupancy (ticks) (Tick)
system.membus.respLayer16.utilization             0.0                       # Layer utilization (Ratio)
system.membus.respLayer17.occupancy        3472976423                       # Layer occupancy (ticks) (Tick)
system.membus.respLayer17.utilization             0.1                       # Layer utilization (Ratio)
system.membus.respLayer2.occupancy         5398947562                       # Layer occupancy (ticks) (Tick)
system.membus.respLayer2.utilization              0.1                       # Layer utilization (Ratio)
system.membus.respLayer21.occupancy            351500                       # Layer occupancy (ticks) (Tick)
system.membus.respLayer21.utilization             0.0                       # Layer utilization (Ratio)
system.membus.respLayer22.occupancy        3473321052                       # Layer occupancy (ticks) (Tick)
system.membus.respLayer22.utilization             0.1                       # Layer utilization (Ratio)
system.membus.respLayer26.occupancy            325250                       # Layer occupancy (ticks) (Tick)
system.membus.respLayer26.utilization             0.0                       # Layer utilization (Ratio)
system.membus.respLayer27.occupancy        3470539996                       # Layer occupancy (ticks) (Tick)
system.membus.respLayer27.utilization             0.1                       # Layer utilization (Ratio)
system.membus.respLayer31.occupancy            341500                       # Layer occupancy (ticks) (Tick)
system.membus.respLayer31.utilization             0.0                       # Layer utilization (Ratio)
system.membus.respLayer32.occupancy        3462340737                       # Layer occupancy (ticks) (Tick)
system.membus.respLayer32.utilization             0.1                       # Layer utilization (Ratio)
system.membus.respLayer36.occupancy            338000                       # Layer occupancy (ticks) (Tick)
system.membus.respLayer36.utilization             0.0                       # Layer utilization (Ratio)
system.membus.respLayer37.occupancy        3464395043                       # Layer occupancy (ticks) (Tick)
system.membus.respLayer37.utilization             0.1                       # Layer utilization (Ratio)
system.membus.respLayer6.occupancy             712749                       # Layer occupancy (ticks) (Tick)
system.membus.respLayer6.utilization              0.0                       # Layer utilization (Ratio)
system.membus.respLayer7.occupancy         3466940342                       # Layer occupancy (ticks) (Tick)
system.membus.respLayer7.utilization              0.1                       # Layer utilization (Ratio)
system.membus.snoop_filter.totRequests       11765387                       # Total number of requests made to the snoop filter. (Count)
system.membus.snoop_filter.hitSingleRequests      5877795                       # Number of requests hitting in the snoop filter with a single holder of the requested data. (Count)
system.membus.snoop_filter.hitMultiRequests        10487                       # Number of requests hitting in the snoop filter with multiple (>1) holders of the requested data. (Count)
system.membus.snoop_filter.totSnoops                0                       # Total number of snoops made to the snoop filter. (Count)
system.membus.snoop_filter.hitSingleSnoops            0                       # Number of snoops hitting in the snoop filter with a single holder of the requested data. (Count)
system.membus.snoop_filter.hitMultiSnoops            0                       # Number of snoops hitting in the snoop filter with multiple (>1) holders of the requested data. (Count)
system.voltage_domain.voltage                       1                       # Voltage in Volts (Volt)
system.workload.inst.arm                            0                       # number of arm instructions executed (Count)
system.workload.inst.quiesce                        0                       # number of quiesce instructions executed (Count)

---------- End Simulation Statistics   ----------
