
---------- Begin Simulation Statistics ----------
simSeconds                                   8.117482                       # Number of seconds simulated (Second)
simTicks                                 8117481885500                       # Number of ticks simulated (Tick)
finalTick                                8117481885500                       # Number of ticks from beginning of simulation (restored from checkpoints and never reset) (Tick)
simFreq                                  1000000000000                       # The number of ticks per simulated second ((Tick/Second))
hostSeconds                                    419.63                       # Real time elapsed on the host (Second)
hostTickRate                              19344240949                       # The number of ticks simulated per host second (ticks/s) ((Tick/Second))
hostMemory                                     670976                       # Number of bytes of host memory used (Byte)
simInsts                                    103235453                       # Number of instructions simulated (Count)
simOps                                      204438440                       # Number of ops (including micro ops) simulated (Count)
hostInstRate                                   246014                       # Simulator instruction rate (inst/s) ((Count/Second))
hostOpRate                                     487184                       # Simulator op (including micro ops) rate (op/s) ((Count/Second))
system.clk_domain.clock                           333                       # Clock period in ticks (Tick)
system.cpu.numCycles                      16234963771                       # Number of cpu cycles simulated (Cycle)
system.cpu.numWorkItemsStarted                      0                       # Number of work items this cpu started (Count)
system.cpu.numWorkItemsCompleted                    0                       # Number of work items this cpu completed (Count)
system.cpu.exec_context.thread_0.numInsts    103235453                       # Number of instructions committed (Count)
system.cpu.exec_context.thread_0.numOps     204438440                       # Number of ops (including micro ops) committed (Count)
system.cpu.exec_context.thread_0.numIntAluAccesses    163429452                       # Number of integer alu accesses (Count)
system.cpu.exec_context.thread_0.numFpAluAccesses     83009918                       # Number of float alu accesses (Count)
system.cpu.exec_context.thread_0.numVecAluAccesses            0                       # Number of vector alu accesses (Count)
system.cpu.exec_context.thread_0.numCallsReturns         3778                       # Number of times a function call or return occured (Count)
system.cpu.exec_context.thread_0.numCondCtrlInsts     18043861                       # Number of instructions that are conditional controls (Count)
system.cpu.exec_context.thread_0.numIntInsts    163429452                       # Number of integer instructions (Count)
system.cpu.exec_context.thread_0.numFpInsts     83009918                       # Number of float instructions (Count)
system.cpu.exec_context.thread_0.numVecInsts            0                       # Number of vector instructions (Count)
system.cpu.exec_context.thread_0.numIntRegReads    179559613                       # Number of times the integer registers were read (Count)
system.cpu.exec_context.thread_0.numIntRegWrites     87315561                       # Number of times the integer registers were written (Count)
system.cpu.exec_context.thread_0.numFpRegReads     90013954                       # Number of times the floating registers were read (Count)
system.cpu.exec_context.thread_0.numFpRegWrites     65007391                       # Number of times the floating registers were written (Count)
system.cpu.exec_context.thread_0.numVecRegReads            0                       # Number of times the vector registers were read (Count)
system.cpu.exec_context.thread_0.numVecRegWrites            0                       # Number of times the vector registers were written (Count)
system.cpu.exec_context.thread_0.numVecPredRegReads            0                       # Number of times the predicate registers were read (Count)
system.cpu.exec_context.thread_0.numVecPredRegWrites            0                       # Number of times the predicate registers were written (Count)
system.cpu.exec_context.thread_0.numCCRegReads     96274883                       # Number of times the CC registers were read (Count)
system.cpu.exec_context.thread_0.numCCRegWrites     66171634                       # Number of times the CC registers were written (Count)
system.cpu.exec_context.thread_0.numMiscRegReads     84179732                       # Number of times the Misc registers were read (Count)
system.cpu.exec_context.thread_0.numMiscRegWrites           18                       # Number of times the Misc registers were written (Count)
system.cpu.exec_context.thread_0.numMemRefs     43074671                       # Number of memory refs (Count)
system.cpu.exec_context.thread_0.numLoadInsts     27054078                       # Number of load instructions (Count)
system.cpu.exec_context.thread_0.numStoreInsts     16020593                       # Number of store instructions (Count)
system.cpu.exec_context.thread_0.numIdleCycles     0.002001                       # Number of idle cycles (Cycle)
system.cpu.exec_context.thread_0.numBusyCycles 16234963770.997999                       # Number of busy cycles (Cycle)
system.cpu.exec_context.thread_0.notIdleFraction     1.000000                       # Percentage of non-idle cycles (Ratio)
system.cpu.exec_context.thread_0.idleFraction     0.000000                       # Percentage of idle cycles (Ratio)
system.cpu.exec_context.thread_0.numBranches     18053370                       # Number of branches fetched (Count)
system.cpu.exec_context.thread_0.statExecutedInstType::No_OpClass         2743      0.00%      0.00% # Class of executed instruction. (Count)
system.cpu.exec_context.thread_0.statExecutedInstType::IntAlu    126353661     61.81%     61.81% # Class of executed instruction. (Count)
system.cpu.exec_context.thread_0.statExecutedInstType::IntMult          202      0.00%     61.81% # Class of executed instruction. (Count)
system.cpu.exec_context.thread_0.statExecutedInstType::IntDiv         1534      0.00%     61.81% # Class of executed instruction. (Count)
system.cpu.exec_context.thread_0.statExecutedInstType::FloatAdd     13000561      6.36%     68.17% # Class of executed instruction. (Count)
system.cpu.exec_context.thread_0.statExecutedInstType::FloatCmp            0      0.00%     68.17% # Class of executed instruction. (Count)
system.cpu.exec_context.thread_0.statExecutedInstType::FloatCvt           32      0.00%     68.17% # Class of executed instruction. (Count)
system.cpu.exec_context.thread_0.statExecutedInstType::FloatMult            0      0.00%     68.17% # Class of executed instruction. (Count)
system.cpu.exec_context.thread_0.statExecutedInstType::FloatMultAcc            0      0.00%     68.17% # Class of executed instruction. (Count)
system.cpu.exec_context.thread_0.statExecutedInstType::FloatDiv            0      0.00%     68.17% # Class of executed instruction. (Count)
system.cpu.exec_context.thread_0.statExecutedInstType::FloatMisc            0      0.00%     68.17% # Class of executed instruction. (Count)
system.cpu.exec_context.thread_0.statExecutedInstType::FloatSqrt            0      0.00%     68.17% # Class of executed instruction. (Count)
system.cpu.exec_context.thread_0.statExecutedInstType::SimdAdd          328      0.00%     68.17% # Class of executed instruction. (Count)
system.cpu.exec_context.thread_0.statExecutedInstType::SimdAddAcc            0      0.00%     68.17% # Class of executed instruction. (Count)
system.cpu.exec_context.thread_0.statExecutedInstType::SimdAlu         1553      0.00%     68.17% # Class of executed instruction. (Count)
system.cpu.exec_context.thread_0.statExecutedInstType::SimdCmp            6      0.00%     68.17% # Class of executed instruction. (Count)
system.cpu.exec_context.thread_0.statExecutedInstType::SimdCvt         1210      0.00%     68.17% # Class of executed instruction. (Count)
system.cpu.exec_context.thread_0.statExecutedInstType::SimdMisc         1561      0.00%     68.17% # Class of executed instruction. (Count)
system.cpu.exec_context.thread_0.statExecutedInstType::SimdMult            0      0.00%     68.17% # Class of executed instruction. (Count)
system.cpu.exec_context.thread_0.statExecutedInstType::SimdMultAcc            0      0.00%     68.17% # Class of executed instruction. (Count)
system.cpu.exec_context.thread_0.statExecutedInstType::SimdShift           99      0.00%     68.17% # Class of executed instruction. (Count)
system.cpu.exec_context.thread_0.statExecutedInstType::SimdShiftAcc            0      0.00%     68.17% # Class of executed instruction. (Count)
system.cpu.exec_context.thread_0.statExecutedInstType::SimdDiv            0      0.00%     68.17% # Class of executed instruction. (Count)
system.cpu.exec_context.thread_0.statExecutedInstType::SimdSqrt            0      0.00%     68.17% # Class of executed instruction. (Count)
system.cpu.exec_context.thread_0.statExecutedInstType::SimdFloatAdd     13000126      6.36%     74.53% # Class of executed instruction. (Count)
system.cpu.exec_context.thread_0.statExecutedInstType::SimdFloatAlu            0      0.00%     74.53% # Class of executed instruction. (Count)
system.cpu.exec_context.thread_0.statExecutedInstType::SimdFloatCmp           16      0.00%     74.53% # Class of executed instruction. (Count)
system.cpu.exec_context.thread_0.statExecutedInstType::SimdFloatCvt      3000222      1.47%     76.00% # Class of executed instruction. (Count)
system.cpu.exec_context.thread_0.statExecutedInstType::SimdFloatDiv           11      0.00%     76.00% # Class of executed instruction. (Count)
system.cpu.exec_context.thread_0.statExecutedInstType::SimdFloatMisc            0      0.00%     76.00% # Class of executed instruction. (Count)
system.cpu.exec_context.thread_0.statExecutedInstType::SimdFloatMult      6000094      2.93%     78.93% # Class of executed instruction. (Count)
system.cpu.exec_context.thread_0.statExecutedInstType::SimdFloatMultAcc            0      0.00%     78.93% # Class of executed instruction. (Count)
system.cpu.exec_context.thread_0.statExecutedInstType::SimdFloatSqrt            0      0.00%     78.93% # Class of executed instruction. (Count)
system.cpu.exec_context.thread_0.statExecutedInstType::SimdReduceAdd            0      0.00%     78.93% # Class of executed instruction. (Count)
system.cpu.exec_context.thread_0.statExecutedInstType::SimdReduceAlu            0      0.00%     78.93% # Class of executed instruction. (Count)
system.cpu.exec_context.thread_0.statExecutedInstType::SimdReduceCmp            0      0.00%     78.93% # Class of executed instruction. (Count)
system.cpu.exec_context.thread_0.statExecutedInstType::SimdFloatReduceAdd            0      0.00%     78.93% # Class of executed instruction. (Count)
system.cpu.exec_context.thread_0.statExecutedInstType::SimdFloatReduceCmp            0      0.00%     78.93% # Class of executed instruction. (Count)
system.cpu.exec_context.thread_0.statExecutedInstType::SimdAes            0      0.00%     78.93% # Class of executed instruction. (Count)
system.cpu.exec_context.thread_0.statExecutedInstType::SimdAesMix            0      0.00%     78.93% # Class of executed instruction. (Count)
system.cpu.exec_context.thread_0.statExecutedInstType::SimdSha1Hash            0      0.00%     78.93% # Class of executed instruction. (Count)
system.cpu.exec_context.thread_0.statExecutedInstType::SimdSha1Hash2            0      0.00%     78.93% # Class of executed instruction. (Count)
system.cpu.exec_context.thread_0.statExecutedInstType::SimdSha256Hash            0      0.00%     78.93% # Class of executed instruction. (Count)
system.cpu.exec_context.thread_0.statExecutedInstType::SimdSha256Hash2            0      0.00%     78.93% # Class of executed instruction. (Count)
system.cpu.exec_context.thread_0.statExecutedInstType::SimdShaSigma2            0      0.00%     78.93% # Class of executed instruction. (Count)
system.cpu.exec_context.thread_0.statExecutedInstType::SimdShaSigma3            0      0.00%     78.93% # Class of executed instruction. (Count)
system.cpu.exec_context.thread_0.statExecutedInstType::SimdPredAlu            0      0.00%     78.93% # Class of executed instruction. (Count)
system.cpu.exec_context.thread_0.statExecutedInstType::MemRead        52157      0.03%     78.96% # Class of executed instruction. (Count)
system.cpu.exec_context.thread_0.statExecutedInstType::MemWrite      1018985      0.50%     79.45% # Class of executed instruction. (Count)
system.cpu.exec_context.thread_0.statExecutedInstType::FloatMemRead     27001921     13.21%     92.66% # Class of executed instruction. (Count)
system.cpu.exec_context.thread_0.statExecutedInstType::FloatMemWrite     15001608      7.34%    100.00% # Class of executed instruction. (Count)
system.cpu.exec_context.thread_0.statExecutedInstType::IprAccess            0      0.00%    100.00% # Class of executed instruction. (Count)
system.cpu.exec_context.thread_0.statExecutedInstType::InstPrefetch            0      0.00%    100.00% # Class of executed instruction. (Count)
system.cpu.exec_context.thread_0.statExecutedInstType::total    204438630                       # Class of executed instruction. (Count)
system.cpu.interrupts.clk_domain.clock           8000                       # Clock period in ticks (Tick)
system.cpu.mmu.dtb.rdAccesses                27054123                       # TLB accesses on read requests (Count)
system.cpu.mmu.dtb.wrAccesses                16020615                       # TLB accesses on write requests (Count)
system.cpu.mmu.dtb.rdMisses                     43220                       # TLB misses on read requests (Count)
system.cpu.mmu.dtb.wrMisses                     29353                       # TLB misses on write requests (Count)
system.cpu.mmu.dtb.walker.power_state.pwrStateResidencyTicks::UNDEFINED 8117481885500                       # Cumulative time (in ticks) in various power states (Tick)
system.cpu.mmu.itb.rdAccesses                       0                       # TLB accesses on read requests (Count)
system.cpu.mmu.itb.wrAccesses               149306756                       # TLB accesses on write requests (Count)
system.cpu.mmu.itb.rdMisses                         0                       # TLB misses on read requests (Count)
system.cpu.mmu.itb.wrMisses                       177                       # TLB misses on write requests (Count)
system.cpu.mmu.itb.walker.power_state.pwrStateResidencyTicks::UNDEFINED 8117481885500                       # Cumulative time (in ticks) in various power states (Tick)
system.cpu.power_state.pwrStateResidencyTicks::ON 8117481885500                       # Cumulative time (in ticks) in various power states (Tick)
system.cpu.thread_0.numInsts                        0                       # Number of Instructions committed (Count)
system.cpu.thread_0.numOps                          0                       # Number of Ops committed (Count)
system.cpu.thread_0.numMemRefs                      0                       # Number of Memory References (Count)
system.cpu.workload.numSyscalls                   129                       # Number of system calls (Count)
system.cpu_clk_domain.clock                       500                       # Clock period in ticks (Tick)
system.cpu_voltage_domain.voltage                   1                       # Voltage in Volts (Volt)
system.mem_ctrls.avgPriority_cpu.inst::samples 149306705.00                       # Average QoS priority value for accepted requests (Count)
system.mem_ctrls.avgPriority_cpu.data::samples  29066745.00                       # Average QoS priority value for accepted requests (Count)
system.mem_ctrls.priorityMinLatency      0.000000017492                       # per QoS priority minimum request to response latency (Second)
system.mem_ctrls.priorityMaxLatency      2.783261803486                       # per QoS priority maximum request to response latency (Second)
system.mem_ctrls.numReadWriteTurnArounds       125897                       # Number of turnarounds from READ to WRITE (Count)
system.mem_ctrls.numWriteReadTurnArounds       125897                       # Number of turnarounds from WRITE to READ (Count)
system.mem_ctrls.numStayReadState           370693312                       # Number of times bus staying in READ state (Count)
system.mem_ctrls.numStayWriteState            1892703                       # Number of times bus staying in WRITE state (Count)
system.mem_ctrls.readReqs                   176360778                       # Number of read requests accepted (Count)
system.mem_ctrls.writeReqs                   16020604                       # Number of write requests accepted (Count)
system.mem_ctrls.readBursts                 176360778                       # Number of controller read bursts, including those serviced by the write queue (Count)
system.mem_ctrls.writeBursts                 16020604                       # Number of controller write bursts, including those merged in the write queue (Count)
system.mem_ctrls.servicedByWrQ                   3408                       # Number of controller read bursts serviced by the write queue (Count)
system.mem_ctrls.mergedWrBursts              14004524                       # Number of controller write bursts merged with an existing one (Count)
system.mem_ctrls.neitherReadNorWriteReqs            0                       # Number of requests that are neither read nor write (Count)
system.mem_ctrls.avgRdQLen                       1.00                       # Average read queue length when enqueuing ((Count/Tick))
system.mem_ctrls.avgWrQLen                      57.57                       # Average write queue length when enqueuing ((Count/Tick))
system.mem_ctrls.numRdRetry                         0                       # Number of times read queue was full causing retry (Count)
system.mem_ctrls.numWrRetry                         0                       # Number of times write queue was full causing retry (Count)
system.mem_ctrls.readPktSize::0                 10137                       # Read request sizes (log2) (Count)
system.mem_ctrls.readPktSize::1                  3199                       # Read request sizes (log2) (Count)
system.mem_ctrls.readPktSize::2                  8820                       # Read request sizes (log2) (Count)
system.mem_ctrls.readPktSize::3             176338622                       # Read request sizes (log2) (Count)
system.mem_ctrls.readPktSize::4                     0                       # Read request sizes (log2) (Count)
system.mem_ctrls.readPktSize::5                     0                       # Read request sizes (log2) (Count)
system.mem_ctrls.readPktSize::6                     0                       # Read request sizes (log2) (Count)
system.mem_ctrls.writePktSize::0                  601                       # Write request sizes (log2) (Count)
system.mem_ctrls.writePktSize::1                  153                       # Write request sizes (log2) (Count)
system.mem_ctrls.writePktSize::2                 2704                       # Write request sizes (log2) (Count)
system.mem_ctrls.writePktSize::3             16017146                       # Write request sizes (log2) (Count)
system.mem_ctrls.writePktSize::4                    0                       # Write request sizes (log2) (Count)
system.mem_ctrls.writePktSize::5                    0                       # Write request sizes (log2) (Count)
system.mem_ctrls.writePktSize::6                    0                       # Write request sizes (log2) (Count)
system.mem_ctrls.rdQLenPdf::0               176357325                       # What read queue length does an incoming req see (Count)
system.mem_ctrls.rdQLenPdf::1                      45                       # What read queue length does an incoming req see (Count)
system.mem_ctrls.rdQLenPdf::2                       0                       # What read queue length does an incoming req see (Count)
system.mem_ctrls.rdQLenPdf::3                       0                       # What read queue length does an incoming req see (Count)
system.mem_ctrls.rdQLenPdf::4                       0                       # What read queue length does an incoming req see (Count)
system.mem_ctrls.rdQLenPdf::5                       0                       # What read queue length does an incoming req see (Count)
system.mem_ctrls.rdQLenPdf::6                       0                       # What read queue length does an incoming req see (Count)
system.mem_ctrls.rdQLenPdf::7                       0                       # What read queue length does an incoming req see (Count)
system.mem_ctrls.rdQLenPdf::8                       0                       # What read queue length does an incoming req see (Count)
system.mem_ctrls.rdQLenPdf::9                       0                       # What read queue length does an incoming req see (Count)
system.mem_ctrls.rdQLenPdf::10                      0                       # What read queue length does an incoming req see (Count)
system.mem_ctrls.rdQLenPdf::11                      0                       # What read queue length does an incoming req see (Count)
system.mem_ctrls.rdQLenPdf::12                      0                       # What read queue length does an incoming req see (Count)
system.mem_ctrls.rdQLenPdf::13                      0                       # What read queue length does an incoming req see (Count)
system.mem_ctrls.rdQLenPdf::14                      0                       # What read queue length does an incoming req see (Count)
system.mem_ctrls.rdQLenPdf::15                      0                       # What read queue length does an incoming req see (Count)
system.mem_ctrls.rdQLenPdf::16                      0                       # What read queue length does an incoming req see (Count)
system.mem_ctrls.rdQLenPdf::17                      0                       # What read queue length does an incoming req see (Count)
system.mem_ctrls.rdQLenPdf::18                      0                       # What read queue length does an incoming req see (Count)
system.mem_ctrls.rdQLenPdf::19                      0                       # What read queue length does an incoming req see (Count)
system.mem_ctrls.rdQLenPdf::20                      0                       # What read queue length does an incoming req see (Count)
system.mem_ctrls.rdQLenPdf::21                      0                       # What read queue length does an incoming req see (Count)
system.mem_ctrls.rdQLenPdf::22                      0                       # What read queue length does an incoming req see (Count)
system.mem_ctrls.rdQLenPdf::23                      0                       # What read queue length does an incoming req see (Count)
system.mem_ctrls.rdQLenPdf::24                      0                       # What read queue length does an incoming req see (Count)
system.mem_ctrls.rdQLenPdf::25                      0                       # What read queue length does an incoming req see (Count)
system.mem_ctrls.rdQLenPdf::26                      0                       # What read queue length does an incoming req see (Count)
system.mem_ctrls.rdQLenPdf::27                      0                       # What read queue length does an incoming req see (Count)
system.mem_ctrls.rdQLenPdf::28                      0                       # What read queue length does an incoming req see (Count)
system.mem_ctrls.rdQLenPdf::29                      0                       # What read queue length does an incoming req see (Count)
system.mem_ctrls.rdQLenPdf::30                      0                       # What read queue length does an incoming req see (Count)
system.mem_ctrls.rdQLenPdf::31                      0                       # What read queue length does an incoming req see (Count)
system.mem_ctrls.rdQLenPdf::32                      0                       # What read queue length does an incoming req see (Count)
system.mem_ctrls.rdQLenPdf::33                      0                       # What read queue length does an incoming req see (Count)
system.mem_ctrls.rdQLenPdf::34                      0                       # What read queue length does an incoming req see (Count)
system.mem_ctrls.rdQLenPdf::35                      0                       # What read queue length does an incoming req see (Count)
system.mem_ctrls.rdQLenPdf::36                      0                       # What read queue length does an incoming req see (Count)
system.mem_ctrls.rdQLenPdf::37                      0                       # What read queue length does an incoming req see (Count)
system.mem_ctrls.rdQLenPdf::38                      0                       # What read queue length does an incoming req see (Count)
system.mem_ctrls.rdQLenPdf::39                      0                       # What read queue length does an incoming req see (Count)
system.mem_ctrls.rdQLenPdf::40                      0                       # What read queue length does an incoming req see (Count)
system.mem_ctrls.rdQLenPdf::41                      0                       # What read queue length does an incoming req see (Count)
system.mem_ctrls.rdQLenPdf::42                      0                       # What read queue length does an incoming req see (Count)
system.mem_ctrls.rdQLenPdf::43                      0                       # What read queue length does an incoming req see (Count)
system.mem_ctrls.rdQLenPdf::44                      0                       # What read queue length does an incoming req see (Count)
system.mem_ctrls.rdQLenPdf::45                      0                       # What read queue length does an incoming req see (Count)
system.mem_ctrls.rdQLenPdf::46                      0                       # What read queue length does an incoming req see (Count)
system.mem_ctrls.rdQLenPdf::47                      0                       # What read queue length does an incoming req see (Count)
system.mem_ctrls.rdQLenPdf::48                      0                       # What read queue length does an incoming req see (Count)
system.mem_ctrls.rdQLenPdf::49                      0                       # What read queue length does an incoming req see (Count)
system.mem_ctrls.rdQLenPdf::50                      0                       # What read queue length does an incoming req see (Count)
system.mem_ctrls.rdQLenPdf::51                      0                       # What read queue length does an incoming req see (Count)
system.mem_ctrls.rdQLenPdf::52                      0                       # What read queue length does an incoming req see (Count)
system.mem_ctrls.rdQLenPdf::53                      0                       # What read queue length does an incoming req see (Count)
system.mem_ctrls.rdQLenPdf::54                      0                       # What read queue length does an incoming req see (Count)
system.mem_ctrls.rdQLenPdf::55                      0                       # What read queue length does an incoming req see (Count)
system.mem_ctrls.rdQLenPdf::56                      0                       # What read queue length does an incoming req see (Count)
system.mem_ctrls.rdQLenPdf::57                      0                       # What read queue length does an incoming req see (Count)
system.mem_ctrls.rdQLenPdf::58                      0                       # What read queue length does an incoming req see (Count)
system.mem_ctrls.rdQLenPdf::59                      0                       # What read queue length does an incoming req see (Count)
system.mem_ctrls.rdQLenPdf::60                      0                       # What read queue length does an incoming req see (Count)
system.mem_ctrls.rdQLenPdf::61                      0                       # What read queue length does an incoming req see (Count)
system.mem_ctrls.rdQLenPdf::62                      0                       # What read queue length does an incoming req see (Count)
system.mem_ctrls.rdQLenPdf::63                      0                       # What read queue length does an incoming req see (Count)
system.mem_ctrls.wrQLenPdf::0                       1                       # What write queue length does an incoming req see (Count)
system.mem_ctrls.wrQLenPdf::1                       1                       # What write queue length does an incoming req see (Count)
system.mem_ctrls.wrQLenPdf::2                       1                       # What write queue length does an incoming req see (Count)
system.mem_ctrls.wrQLenPdf::3                       1                       # What write queue length does an incoming req see (Count)
system.mem_ctrls.wrQLenPdf::4                       1                       # What write queue length does an incoming req see (Count)
system.mem_ctrls.wrQLenPdf::5                       1                       # What write queue length does an incoming req see (Count)
system.mem_ctrls.wrQLenPdf::6                       1                       # What write queue length does an incoming req see (Count)
system.mem_ctrls.wrQLenPdf::7                       1                       # What write queue length does an incoming req see (Count)
system.mem_ctrls.wrQLenPdf::8                       1                       # What write queue length does an incoming req see (Count)
system.mem_ctrls.wrQLenPdf::9                       1                       # What write queue length does an incoming req see (Count)
system.mem_ctrls.wrQLenPdf::10                      1                       # What write queue length does an incoming req see (Count)
system.mem_ctrls.wrQLenPdf::11                      1                       # What write queue length does an incoming req see (Count)
system.mem_ctrls.wrQLenPdf::12                      1                       # What write queue length does an incoming req see (Count)
system.mem_ctrls.wrQLenPdf::13                      1                       # What write queue length does an incoming req see (Count)
system.mem_ctrls.wrQLenPdf::14                      1                       # What write queue length does an incoming req see (Count)
system.mem_ctrls.wrQLenPdf::15                      1                       # What write queue length does an incoming req see (Count)
system.mem_ctrls.wrQLenPdf::16                      1                       # What write queue length does an incoming req see (Count)
system.mem_ctrls.wrQLenPdf::17                      1                       # What write queue length does an incoming req see (Count)
system.mem_ctrls.wrQLenPdf::18                      1                       # What write queue length does an incoming req see (Count)
system.mem_ctrls.wrQLenPdf::19                      1                       # What write queue length does an incoming req see (Count)
system.mem_ctrls.wrQLenPdf::20                      1                       # What write queue length does an incoming req see (Count)
system.mem_ctrls.wrQLenPdf::21                      1                       # What write queue length does an incoming req see (Count)
system.mem_ctrls.wrQLenPdf::22                      1                       # What write queue length does an incoming req see (Count)
system.mem_ctrls.wrQLenPdf::23                      1                       # What write queue length does an incoming req see (Count)
system.mem_ctrls.wrQLenPdf::24                      1                       # What write queue length does an incoming req see (Count)
system.mem_ctrls.wrQLenPdf::25                      1                       # What write queue length does an incoming req see (Count)
system.mem_ctrls.wrQLenPdf::26                      1                       # What write queue length does an incoming req see (Count)
system.mem_ctrls.wrQLenPdf::27                      1                       # What write queue length does an incoming req see (Count)
system.mem_ctrls.wrQLenPdf::28                      1                       # What write queue length does an incoming req see (Count)
system.mem_ctrls.wrQLenPdf::29                      1                       # What write queue length does an incoming req see (Count)
system.mem_ctrls.wrQLenPdf::30                      1                       # What write queue length does an incoming req see (Count)
system.mem_ctrls.wrQLenPdf::31                      1                       # What write queue length does an incoming req see (Count)
system.mem_ctrls.wrQLenPdf::32                      1                       # What write queue length does an incoming req see (Count)
system.mem_ctrls.wrQLenPdf::33                      1                       # What write queue length does an incoming req see (Count)
system.mem_ctrls.wrQLenPdf::34                      1                       # What write queue length does an incoming req see (Count)
system.mem_ctrls.wrQLenPdf::35                      1                       # What write queue length does an incoming req see (Count)
system.mem_ctrls.wrQLenPdf::36                      1                       # What write queue length does an incoming req see (Count)
system.mem_ctrls.wrQLenPdf::37                      1                       # What write queue length does an incoming req see (Count)
system.mem_ctrls.wrQLenPdf::38                      1                       # What write queue length does an incoming req see (Count)
system.mem_ctrls.wrQLenPdf::39                      1                       # What write queue length does an incoming req see (Count)
system.mem_ctrls.wrQLenPdf::40                      1                       # What write queue length does an incoming req see (Count)
system.mem_ctrls.wrQLenPdf::41                      1                       # What write queue length does an incoming req see (Count)
system.mem_ctrls.wrQLenPdf::42                      1                       # What write queue length does an incoming req see (Count)
system.mem_ctrls.wrQLenPdf::43                      1                       # What write queue length does an incoming req see (Count)
system.mem_ctrls.wrQLenPdf::44                      1                       # What write queue length does an incoming req see (Count)
system.mem_ctrls.wrQLenPdf::45                      1                       # What write queue length does an incoming req see (Count)
system.mem_ctrls.wrQLenPdf::46                      1                       # What write queue length does an incoming req see (Count)
system.mem_ctrls.wrQLenPdf::47                    820                       # What write queue length does an incoming req see (Count)
system.mem_ctrls.wrQLenPdf::48                    853                       # What write queue length does an incoming req see (Count)
system.mem_ctrls.wrQLenPdf::49                 125899                       # What write queue length does an incoming req see (Count)
system.mem_ctrls.wrQLenPdf::50                 125898                       # What write queue length does an incoming req see (Count)
system.mem_ctrls.wrQLenPdf::51                 125898                       # What write queue length does an incoming req see (Count)
system.mem_ctrls.wrQLenPdf::52                 125898                       # What write queue length does an incoming req see (Count)
system.mem_ctrls.wrQLenPdf::53                 125898                       # What write queue length does an incoming req see (Count)
system.mem_ctrls.wrQLenPdf::54                 125897                       # What write queue length does an incoming req see (Count)
system.mem_ctrls.wrQLenPdf::55                 125897                       # What write queue length does an incoming req see (Count)
system.mem_ctrls.wrQLenPdf::56                 125898                       # What write queue length does an incoming req see (Count)
system.mem_ctrls.wrQLenPdf::57                 125897                       # What write queue length does an incoming req see (Count)
system.mem_ctrls.wrQLenPdf::58                 125897                       # What write queue length does an incoming req see (Count)
system.mem_ctrls.wrQLenPdf::59                 125897                       # What write queue length does an incoming req see (Count)
system.mem_ctrls.wrQLenPdf::60                 125897                       # What write queue length does an incoming req see (Count)
system.mem_ctrls.wrQLenPdf::61                 125897                       # What write queue length does an incoming req see (Count)
system.mem_ctrls.wrQLenPdf::62                 125897                       # What write queue length does an incoming req see (Count)
system.mem_ctrls.wrQLenPdf::63                 125897                       # What write queue length does an incoming req see (Count)
system.mem_ctrls.wrQLenPdf::64                 125897                       # What write queue length does an incoming req see (Count)
system.mem_ctrls.wrQLenPdf::65                      1                       # What write queue length does an incoming req see (Count)
system.mem_ctrls.wrQLenPdf::66                      0                       # What write queue length does an incoming req see (Count)
system.mem_ctrls.wrQLenPdf::67                      0                       # What write queue length does an incoming req see (Count)
system.mem_ctrls.wrQLenPdf::68                      0                       # What write queue length does an incoming req see (Count)
system.mem_ctrls.wrQLenPdf::69                      0                       # What write queue length does an incoming req see (Count)
system.mem_ctrls.wrQLenPdf::70                      0                       # What write queue length does an incoming req see (Count)
system.mem_ctrls.wrQLenPdf::71                      0                       # What write queue length does an incoming req see (Count)
system.mem_ctrls.wrQLenPdf::72                      0                       # What write queue length does an incoming req see (Count)
system.mem_ctrls.wrQLenPdf::73                      0                       # What write queue length does an incoming req see (Count)
system.mem_ctrls.wrQLenPdf::74                      0                       # What write queue length does an incoming req see (Count)
system.mem_ctrls.wrQLenPdf::75                      0                       # What write queue length does an incoming req see (Count)
system.mem_ctrls.wrQLenPdf::76                      0                       # What write queue length does an incoming req see (Count)
system.mem_ctrls.wrQLenPdf::77                      0                       # What write queue length does an incoming req see (Count)
system.mem_ctrls.wrQLenPdf::78                      0                       # What write queue length does an incoming req see (Count)
system.mem_ctrls.wrQLenPdf::79                      0                       # What write queue length does an incoming req see (Count)
system.mem_ctrls.wrQLenPdf::80                      0                       # What write queue length does an incoming req see (Count)
system.mem_ctrls.wrQLenPdf::81                      0                       # What write queue length does an incoming req see (Count)
system.mem_ctrls.wrQLenPdf::82                      0                       # What write queue length does an incoming req see (Count)
system.mem_ctrls.wrQLenPdf::83                      0                       # What write queue length does an incoming req see (Count)
system.mem_ctrls.wrQLenPdf::84                      0                       # What write queue length does an incoming req see (Count)
system.mem_ctrls.wrQLenPdf::85                      0                       # What write queue length does an incoming req see (Count)
system.mem_ctrls.wrQLenPdf::86                      0                       # What write queue length does an incoming req see (Count)
system.mem_ctrls.wrQLenPdf::87                      0                       # What write queue length does an incoming req see (Count)
system.mem_ctrls.wrQLenPdf::88                      0                       # What write queue length does an incoming req see (Count)
system.mem_ctrls.wrQLenPdf::89                      0                       # What write queue length does an incoming req see (Count)
system.mem_ctrls.wrQLenPdf::90                      0                       # What write queue length does an incoming req see (Count)
system.mem_ctrls.wrQLenPdf::91                      0                       # What write queue length does an incoming req see (Count)
system.mem_ctrls.wrQLenPdf::92                      0                       # What write queue length does an incoming req see (Count)
system.mem_ctrls.wrQLenPdf::93                      0                       # What write queue length does an incoming req see (Count)
system.mem_ctrls.wrQLenPdf::94                      0                       # What write queue length does an incoming req see (Count)
system.mem_ctrls.wrQLenPdf::95                      0                       # What write queue length does an incoming req see (Count)
system.mem_ctrls.wrQLenPdf::96                      0                       # What write queue length does an incoming req see (Count)
system.mem_ctrls.wrQLenPdf::97                      0                       # What write queue length does an incoming req see (Count)
system.mem_ctrls.wrQLenPdf::98                      0                       # What write queue length does an incoming req see (Count)
system.mem_ctrls.wrQLenPdf::99                      0                       # What write queue length does an incoming req see (Count)
system.mem_ctrls.wrQLenPdf::100                     0                       # What write queue length does an incoming req see (Count)
system.mem_ctrls.wrQLenPdf::101                     0                       # What write queue length does an incoming req see (Count)
system.mem_ctrls.wrQLenPdf::102                     0                       # What write queue length does an incoming req see (Count)
system.mem_ctrls.wrQLenPdf::103                     0                       # What write queue length does an incoming req see (Count)
system.mem_ctrls.wrQLenPdf::104                     0                       # What write queue length does an incoming req see (Count)
system.mem_ctrls.wrQLenPdf::105                     0                       # What write queue length does an incoming req see (Count)
system.mem_ctrls.wrQLenPdf::106                     0                       # What write queue length does an incoming req see (Count)
system.mem_ctrls.wrQLenPdf::107                     0                       # What write queue length does an incoming req see (Count)
system.mem_ctrls.wrQLenPdf::108                     0                       # What write queue length does an incoming req see (Count)
system.mem_ctrls.wrQLenPdf::109                     0                       # What write queue length does an incoming req see (Count)
system.mem_ctrls.wrQLenPdf::110                     0                       # What write queue length does an incoming req see (Count)
system.mem_ctrls.wrQLenPdf::111                     0                       # What write queue length does an incoming req see (Count)
system.mem_ctrls.wrQLenPdf::112                     0                       # What write queue length does an incoming req see (Count)
system.mem_ctrls.wrQLenPdf::113                     0                       # What write queue length does an incoming req see (Count)
system.mem_ctrls.wrQLenPdf::114                     0                       # What write queue length does an incoming req see (Count)
system.mem_ctrls.wrQLenPdf::115                     0                       # What write queue length does an incoming req see (Count)
system.mem_ctrls.wrQLenPdf::116                     0                       # What write queue length does an incoming req see (Count)
system.mem_ctrls.wrQLenPdf::117                     0                       # What write queue length does an incoming req see (Count)
system.mem_ctrls.wrQLenPdf::118                     0                       # What write queue length does an incoming req see (Count)
system.mem_ctrls.wrQLenPdf::119                     0                       # What write queue length does an incoming req see (Count)
system.mem_ctrls.wrQLenPdf::120                     0                       # What write queue length does an incoming req see (Count)
system.mem_ctrls.wrQLenPdf::121                     0                       # What write queue length does an incoming req see (Count)
system.mem_ctrls.wrQLenPdf::122                     0                       # What write queue length does an incoming req see (Count)
system.mem_ctrls.wrQLenPdf::123                     0                       # What write queue length does an incoming req see (Count)
system.mem_ctrls.wrQLenPdf::124                     0                       # What write queue length does an incoming req see (Count)
system.mem_ctrls.wrQLenPdf::125                     0                       # What write queue length does an incoming req see (Count)
system.mem_ctrls.wrQLenPdf::126                     0                       # What write queue length does an incoming req see (Count)
system.mem_ctrls.wrQLenPdf::127                     0                       # What write queue length does an incoming req see (Count)
system.mem_ctrls.rdPerTurnAround::samples       125897                       # Reads before turning the bus around for writes (Count)
system.mem_ctrls.rdPerTurnAround::mean    1400.804229                       # Reads before turning the bus around for writes (Count)
system.mem_ctrls.rdPerTurnAround::stdev  87508.280135                       # Reads before turning the bus around for writes (Count)
system.mem_ctrls.rdPerTurnAround::0-524287       125896    100.00%    100.00% # Reads before turning the bus around for writes (Count)
system.mem_ctrls.rdPerTurnAround::3.0933e+07-3.14573e+07            1      0.00%    100.00% # Reads before turning the bus around for writes (Count)
system.mem_ctrls.rdPerTurnAround::total        125897                       # Reads before turning the bus around for writes (Count)
system.mem_ctrls.wrPerTurnAround::samples       125897                       # Writes before turning the bus around for reads (Count)
system.mem_ctrls.wrPerTurnAround::mean      16.013297                       # Writes before turning the bus around for reads (Count)
system.mem_ctrls.wrPerTurnAround::gmean     16.012532                       # Writes before turning the bus around for reads (Count)
system.mem_ctrls.wrPerTurnAround::stdev      0.162825                       # Writes before turning the bus around for reads (Count)
system.mem_ctrls.wrPerTurnAround::16           125054     99.33%     99.33% # Writes before turning the bus around for reads (Count)
system.mem_ctrls.wrPerTurnAround::17               24      0.02%     99.35% # Writes before turning the bus around for reads (Count)
system.mem_ctrls.wrPerTurnAround::18              807      0.64%     99.99% # Writes before turning the bus around for reads (Count)
system.mem_ctrls.wrPerTurnAround::19               12      0.01%    100.00% # Writes before turning the bus around for reads (Count)
system.mem_ctrls.wrPerTurnAround::total        125897                       # Writes before turning the bus around for reads (Count)
system.mem_ctrls.bytesReadWrQ                  218112                       # Total number of bytes read from write queue (Byte)
system.mem_ctrls.bytesReadSys              1410760722                       # Total read bytes from the system interface side (Byte)
system.mem_ctrls.bytesWrittenSys            128148839                       # Total written bytes from the system interface side (Byte)
system.mem_ctrls.avgRdBWSys              173792900.54468703                       # Average system read bandwidth in Byte/s ((Byte/Second))
system.mem_ctrls.avgWrBWSys              15786772.40153849                       # Average system write bandwidth in Byte/s ((Byte/Second))
system.mem_ctrls.totGap                  8117481774500                       # Total gap between requests (Tick)
system.mem_ctrls.avgGap                      42194.74                       # Average gap between requests ((Tick/Count))
system.mem_ctrls.requestorReadBytes::cpu.inst   1194453640                       # Per-requestor bytes read from memory (Byte)
system.mem_ctrls.requestorReadBytes::cpu.data    216281905                       # Per-requestor bytes read from memory (Byte)
system.mem_ctrls.requestorWriteBytes::cpu.data     16127689                       # Per-requestor bytes write to memory (Byte)
system.mem_ctrls.requestorReadRate::cpu.inst 147145833.750933855772                       # Per-requestor bytes read from memory rate ((Byte/Second))
system.mem_ctrls.requestorReadRate::cpu.data 26643965.216151267290                       # Per-requestor bytes read from memory rate ((Byte/Second))
system.mem_ctrls.requestorWriteRate::cpu.data 1986784.723081227625                       # Per-requestor bytes write to memory rate ((Byte/Second))
system.mem_ctrls.requestorReadAccesses::cpu.inst    149306705                       # Per-requestor read serviced memory accesses (Count)
system.mem_ctrls.requestorReadAccesses::cpu.data     27054073                       # Per-requestor read serviced memory accesses (Count)
system.mem_ctrls.requestorWriteAccesses::cpu.data     16020604                       # Per-requestor write serviced memory accesses (Count)
system.mem_ctrls.requestorReadTotalLat::cpu.inst 3084338621272                       # Per-requestor read total memory access latency (Tick)
system.mem_ctrls.requestorReadTotalLat::cpu.data 581562502036                       # Per-requestor read total memory access latency (Tick)
system.mem_ctrls.requestorWriteTotalLat::cpu.data 412183754709981                       # Per-requestor write total memory access latency (Tick)
system.mem_ctrls.requestorReadAvgLat::cpu.inst     20657.74                       # Per-requestor read average memory access latency ((Tick/Count))
system.mem_ctrls.requestorReadAvgLat::cpu.data     21496.30                       # Per-requestor read average memory access latency ((Tick/Count))
system.mem_ctrls.requestorWriteAvgLat::cpu.data  25728352.98                       # Per-requestor write average memory access latency ((Tick/Count))
system.mem_ctrls.dram.bytesRead::cpu.inst   1194453640                       # Number of bytes read from this memory (Byte)
system.mem_ctrls.dram.bytesRead::cpu.data    216307082                       # Number of bytes read from this memory (Byte)
system.mem_ctrls.dram.bytesRead::total     1410760722                       # Number of bytes read from this memory (Byte)
system.mem_ctrls.dram.bytesInstRead::cpu.inst   1194453640                       # Number of instructions bytes read from this memory (Byte)
system.mem_ctrls.dram.bytesInstRead::total   1194453640                       # Number of instructions bytes read from this memory (Byte)
system.mem_ctrls.dram.bytesWritten::cpu.data    128148839                       # Number of bytes written to this memory (Byte)
system.mem_ctrls.dram.bytesWritten::total    128148839                       # Number of bytes written to this memory (Byte)
system.mem_ctrls.dram.numReads::cpu.inst    149306705                       # Number of read requests responded to by this memory (Count)
system.mem_ctrls.dram.numReads::cpu.data     27054073                       # Number of read requests responded to by this memory (Count)
system.mem_ctrls.dram.numReads::total       176360778                       # Number of read requests responded to by this memory (Count)
system.mem_ctrls.dram.numWrites::cpu.data     16020604                       # Number of write requests responded to by this memory (Count)
system.mem_ctrls.dram.numWrites::total       16020604                       # Number of write requests responded to by this memory (Count)
system.mem_ctrls.dram.bwRead::cpu.inst      147145834                       # Total read bandwidth from this memory ((Byte/Second))
system.mem_ctrls.dram.bwRead::cpu.data       26647067                       # Total read bandwidth from this memory ((Byte/Second))
system.mem_ctrls.dram.bwRead::total         173792901                       # Total read bandwidth from this memory ((Byte/Second))
system.mem_ctrls.dram.bwInstRead::cpu.inst    147145834                       # Instruction read bandwidth from this memory ((Byte/Second))
system.mem_ctrls.dram.bwInstRead::total     147145834                       # Instruction read bandwidth from this memory ((Byte/Second))
system.mem_ctrls.dram.bwWrite::cpu.data      15786772                       # Write bandwidth from this memory ((Byte/Second))
system.mem_ctrls.dram.bwWrite::total         15786772                       # Write bandwidth from this memory ((Byte/Second))
system.mem_ctrls.dram.bwTotal::cpu.inst     147145834                       # Total bandwidth to/from this memory ((Byte/Second))
system.mem_ctrls.dram.bwTotal::cpu.data      42433839                       # Total bandwidth to/from this memory ((Byte/Second))
system.mem_ctrls.dram.bwTotal::total        189579673                       # Total bandwidth to/from this memory ((Byte/Second))
system.mem_ctrls.dram.readBursts            176357370                       # Number of DRAM read bursts (Count)
system.mem_ctrls.dram.writeBursts             2016026                       # Number of DRAM write bursts (Count)
system.mem_ctrls.dram.perBankRdBursts::0    149695490                       # Per bank write bursts (Count)
system.mem_ctrls.dram.perBankRdBursts::1      5687483                       # Per bank write bursts (Count)
system.mem_ctrls.dram.perBankRdBursts::2       694408                       # Per bank write bursts (Count)
system.mem_ctrls.dram.perBankRdBursts::3       696834                       # Per bank write bursts (Count)
system.mem_ctrls.dram.perBankRdBursts::4       692932                       # Per bank write bursts (Count)
system.mem_ctrls.dram.perBankRdBursts::5       692954                       # Per bank write bursts (Count)
system.mem_ctrls.dram.perBankRdBursts::6       691675                       # Per bank write bursts (Count)
system.mem_ctrls.dram.perBankRdBursts::7       691236                       # Per bank write bursts (Count)
system.mem_ctrls.dram.perBankRdBursts::8       692086                       # Per bank write bursts (Count)
system.mem_ctrls.dram.perBankRdBursts::9       691329                       # Per bank write bursts (Count)
system.mem_ctrls.dram.perBankRdBursts::10       692299                       # Per bank write bursts (Count)
system.mem_ctrls.dram.perBankRdBursts::11       707776                       # Per bank write bursts (Count)
system.mem_ctrls.dram.perBankRdBursts::12       694458                       # Per bank write bursts (Count)
system.mem_ctrls.dram.perBankRdBursts::13       691544                       # Per bank write bursts (Count)
system.mem_ctrls.dram.perBankRdBursts::14       693056                       # Per bank write bursts (Count)
system.mem_ctrls.dram.perBankRdBursts::15       704589                       # Per bank write bursts (Count)
system.mem_ctrls.dram.perBankRdBursts::16       714801                       # Per bank write bursts (Count)
system.mem_ctrls.dram.perBankRdBursts::17       693489                       # Per bank write bursts (Count)
system.mem_ctrls.dram.perBankRdBursts::18       692513                       # Per bank write bursts (Count)
system.mem_ctrls.dram.perBankRdBursts::19       778786                       # Per bank write bursts (Count)
system.mem_ctrls.dram.perBankRdBursts::20       685436                       # Per bank write bursts (Count)
system.mem_ctrls.dram.perBankRdBursts::21       686604                       # Per bank write bursts (Count)
system.mem_ctrls.dram.perBankRdBursts::22       684023                       # Per bank write bursts (Count)
system.mem_ctrls.dram.perBankRdBursts::23       688256                       # Per bank write bursts (Count)
system.mem_ctrls.dram.perBankRdBursts::24       686972                       # Per bank write bursts (Count)
system.mem_ctrls.dram.perBankRdBursts::25       722983                       # Per bank write bursts (Count)
system.mem_ctrls.dram.perBankRdBursts::26       730032                       # Per bank write bursts (Count)
system.mem_ctrls.dram.perBankRdBursts::27       710509                       # Per bank write bursts (Count)
system.mem_ctrls.dram.perBankRdBursts::28       693301                       # Per bank write bursts (Count)
system.mem_ctrls.dram.perBankRdBursts::29       688923                       # Per bank write bursts (Count)
system.mem_ctrls.dram.perBankRdBursts::30       693149                       # Per bank write bursts (Count)
system.mem_ctrls.dram.perBankRdBursts::31       697444                       # Per bank write bursts (Count)
system.mem_ctrls.dram.perBankWrBursts::0        62002                       # Per bank write bursts (Count)
system.mem_ctrls.dram.perBankWrBursts::1        62289                       # Per bank write bursts (Count)
system.mem_ctrls.dram.perBankWrBursts::2        63550                       # Per bank write bursts (Count)
system.mem_ctrls.dram.perBankWrBursts::3        63423                       # Per bank write bursts (Count)
system.mem_ctrls.dram.perBankWrBursts::4        63433                       # Per bank write bursts (Count)
system.mem_ctrls.dram.perBankWrBursts::5        63464                       # Per bank write bursts (Count)
system.mem_ctrls.dram.perBankWrBursts::6        63456                       # Per bank write bursts (Count)
system.mem_ctrls.dram.perBankWrBursts::7        63455                       # Per bank write bursts (Count)
system.mem_ctrls.dram.perBankWrBursts::8        63432                       # Per bank write bursts (Count)
system.mem_ctrls.dram.perBankWrBursts::9        63441                       # Per bank write bursts (Count)
system.mem_ctrls.dram.perBankWrBursts::10        63538                       # Per bank write bursts (Count)
system.mem_ctrls.dram.perBankWrBursts::11        63711                       # Per bank write bursts (Count)
system.mem_ctrls.dram.perBankWrBursts::12        63455                       # Per bank write bursts (Count)
system.mem_ctrls.dram.perBankWrBursts::13        63446                       # Per bank write bursts (Count)
system.mem_ctrls.dram.perBankWrBursts::14        63430                       # Per bank write bursts (Count)
system.mem_ctrls.dram.perBankWrBursts::15        63375                       # Per bank write bursts (Count)
system.mem_ctrls.dram.perBankWrBursts::16        63780                       # Per bank write bursts (Count)
system.mem_ctrls.dram.perBankWrBursts::17        63736                       # Per bank write bursts (Count)
system.mem_ctrls.dram.perBankWrBursts::18        63384                       # Per bank write bursts (Count)
system.mem_ctrls.dram.perBankWrBursts::19        62967                       # Per bank write bursts (Count)
system.mem_ctrls.dram.perBankWrBursts::20        62456                       # Per bank write bursts (Count)
system.mem_ctrls.dram.perBankWrBursts::21        62480                       # Per bank write bursts (Count)
system.mem_ctrls.dram.perBankWrBursts::22        62493                       # Per bank write bursts (Count)
system.mem_ctrls.dram.perBankWrBursts::23        62425                       # Per bank write bursts (Count)
system.mem_ctrls.dram.perBankWrBursts::24        62436                       # Per bank write bursts (Count)
system.mem_ctrls.dram.perBankWrBursts::25        62448                       # Per bank write bursts (Count)
system.mem_ctrls.dram.perBankWrBursts::26        62437                       # Per bank write bursts (Count)
system.mem_ctrls.dram.perBankWrBursts::27        62435                       # Per bank write bursts (Count)
system.mem_ctrls.dram.perBankWrBursts::28        62422                       # Per bank write bursts (Count)
system.mem_ctrls.dram.perBankWrBursts::29        62421                       # Per bank write bursts (Count)
system.mem_ctrls.dram.perBankWrBursts::30        62418                       # Per bank write bursts (Count)
system.mem_ctrls.dram.perBankWrBursts::31        62388                       # Per bank write bursts (Count)
system.mem_ctrls.dram.totQLat            581058007268                       # Total ticks spent queuing (Tick)
system.mem_ctrls.dram.totBusLat          587622756840                       # Total ticks spent in databus transfers (Tick)
system.mem_ctrls.dram.totMemAccLat       3665901123308                       # Total ticks spent from burst creation until serviced by the DRAM (Tick)
system.mem_ctrls.dram.avgQLat                 3294.78                       # Average queueing delay per DRAM burst ((Tick/Count))
system.mem_ctrls.dram.avgBusLat               3332.00                       # Average bus latency per DRAM burst ((Tick/Count))
system.mem_ctrls.dram.avgMemAccLat           20786.78                       # Average memory access latency per DRAM burst ((Tick/Count))
system.mem_ctrls.dram.readRowHits           162964688                       # Number of row buffer hits during reads (Count)
system.mem_ctrls.dram.writeRowHits            1747833                       # Number of row buffer hits during writes (Count)
system.mem_ctrls.dram.readRowHitRate            92.41                       # Row buffer hit rate for reads (Ratio)
system.mem_ctrls.dram.writeRowHitRate           86.70                       # Row buffer hit rate for writes (Ratio)
system.mem_ctrls.dram.bytesPerActivate::samples     13660868                       # Bytes accessed per row activation (Byte)
system.mem_ctrls.dram.bytesPerActivate::mean   835.663964                       # Bytes accessed per row activation (Byte)
system.mem_ctrls.dram.bytesPerActivate::gmean   691.582740                       # Bytes accessed per row activation (Byte)
system.mem_ctrls.dram.bytesPerActivate::stdev   321.317347                       # Bytes accessed per row activation (Byte)
system.mem_ctrls.dram.bytesPerActivate::0-127      1022321      7.48%      7.48% # Bytes accessed per row activation (Byte)
system.mem_ctrls.dram.bytesPerActivate::128-255       445058      3.26%     10.74% # Bytes accessed per row activation (Byte)
system.mem_ctrls.dram.bytesPerActivate::256-383       412272      3.02%     13.76% # Bytes accessed per row activation (Byte)
system.mem_ctrls.dram.bytesPerActivate::384-511       527884      3.86%     17.62% # Bytes accessed per row activation (Byte)
system.mem_ctrls.dram.bytesPerActivate::512-639       534800      3.91%     21.54% # Bytes accessed per row activation (Byte)
system.mem_ctrls.dram.bytesPerActivate::640-767       473971      3.47%     25.01% # Bytes accessed per row activation (Byte)
system.mem_ctrls.dram.bytesPerActivate::768-895       290155      2.12%     27.13% # Bytes accessed per row activation (Byte)
system.mem_ctrls.dram.bytesPerActivate::896-1023      1026873      7.52%     34.65% # Bytes accessed per row activation (Byte)
system.mem_ctrls.dram.bytesPerActivate::1024-1151      8927534     65.35%    100.00% # Bytes accessed per row activation (Byte)
system.mem_ctrls.dram.bytesPerActivate::total     13660868                       # Bytes accessed per row activation (Byte)
system.mem_ctrls.dram.bytesRead           11286871680                       # Total bytes read (Byte)
system.mem_ctrls.dram.bytesWritten          129025664                       # Total bytes written (Byte)
system.mem_ctrls.dram.avgRdBW             1390.440021                       # Average DRAM read bandwidth in MiBytes/s ((Byte/Second))
system.mem_ctrls.dram.avgWrBW               15.894789                       # Average DRAM write bandwidth in MiBytes/s ((Byte/Second))
system.mem_ctrls.dram.peakBW                 19207.00                       # Theoretical peak bandwidth in MiByte/s ((Byte/Second))
system.mem_ctrls.dram.busUtil                    7.32                       # Data bus utilization in percentage (Ratio)
system.mem_ctrls.dram.busUtilRead                7.24                       # Data bus utilization in percentage for reads (Ratio)
system.mem_ctrls.dram.busUtilWrite               0.08                       # Data bus utilization in percentage for writes (Ratio)
system.mem_ctrls.dram.pageHitRate               92.34                       # Row buffer hit rate, read and write combined (Ratio)
system.mem_ctrls.dram.power_state.pwrStateResidencyTicks::UNDEFINED 8117481885500                       # Cumulative time (in ticks) in various power states (Tick)
system.mem_ctrls.dram.rank0.actEnergy    39080233011.729698                       # Energy for activate commands per rank (pJ) (Joule)
system.mem_ctrls.dram.rank0.preEnergy    51956652174.387794                       # Energy for precharge commands per rank (pJ) (Joule)
system.mem_ctrls.dram.rank0.readEnergy   694505593587.288452                       # Energy for read commands per rank (pJ) (Joule)
system.mem_ctrls.dram.rank0.writeEnergy  3806980598.398465                       # Energy for write commands per rank (pJ) (Joule)
system.mem_ctrls.dram.rank0.refreshEnergy 1444387787227.809814                       # Energy for refresh commands per rank (pJ) (Joule)
system.mem_ctrls.dram.rank0.actBackEnergy 6804906872963.398438                       # Energy for active background per rank (pJ) (Joule)
system.mem_ctrls.dram.rank0.preBackEnergy 70463165694.191711                       # Energy for precharge background per rank (pJ) (Joule)
system.mem_ctrls.dram.rank0.actPowerDownEnergy            0                       # Energy for active power-down per rank (pJ) (Joule)
system.mem_ctrls.dram.rank0.prePowerDownEnergy            0                       # Energy for precharge power-down per rank (pJ) (Joule)
system.mem_ctrls.dram.rank0.selfRefreshEnergy            0                       # Energy for self refresh per rank (pJ) (Joule)
system.mem_ctrls.dram.rank0.totalEnergy  9109107285138.449219                       # Total energy per rank (pJ) (Joule)
system.mem_ctrls.dram.rank0.averagePower  1122.159238                       # Core power per rank (mW) (Watt)
system.mem_ctrls.dram.rank0.totalIdleTime            0                       # Total Idle time Per DRAM Rank (Tick)
system.mem_ctrls.dram.rank0.pwrStateTime::IDLE  46975731892                       # Time in different power states (Tick)
system.mem_ctrls.dram.rank0.pwrStateTime::REF 364908250000                       # Time in different power states (Tick)
system.mem_ctrls.dram.rank0.pwrStateTime::SREF            0                       # Time in different power states (Tick)
system.mem_ctrls.dram.rank0.pwrStateTime::PRE_PDN            0                       # Time in different power states (Tick)
system.mem_ctrls.dram.rank0.pwrStateTime::ACT 7705597903608                       # Time in different power states (Tick)
system.mem_ctrls.dram.rank0.pwrStateTime::ACT_PDN            0                       # Time in different power states (Tick)
system.mem_ctrls.dram.rank1.actEnergy    3524648216.539888                       # Energy for activate commands per rank (pJ) (Joule)
system.mem_ctrls.dram.rank1.preEnergy    4685962177.040086                       # Energy for precharge commands per rank (pJ) (Joule)
system.mem_ctrls.dram.rank1.readEnergy   47309374645.950638                       # Energy for read commands per rank (pJ) (Joule)
system.mem_ctrls.dram.rank1.writeEnergy  3770245058.494514                       # Energy for write commands per rank (pJ) (Joule)
system.mem_ctrls.dram.rank1.refreshEnergy 1444387787227.809814                       # Energy for refresh commands per rank (pJ) (Joule)
system.mem_ctrls.dram.rank1.actBackEnergy 5001992695698.219727                       # Energy for active background per rank (pJ) (Joule)
system.mem_ctrls.dram.rank1.preBackEnergy 1455753154934.138184                       # Energy for precharge background per rank (pJ) (Joule)
system.mem_ctrls.dram.rank1.actPowerDownEnergy            0                       # Energy for active power-down per rank (pJ) (Joule)
system.mem_ctrls.dram.rank1.prePowerDownEnergy            0                       # Energy for precharge power-down per rank (pJ) (Joule)
system.mem_ctrls.dram.rank1.selfRefreshEnergy            0                       # Energy for self refresh per rank (pJ) (Joule)
system.mem_ctrls.dram.rank1.totalEnergy  7961423867974.346680                       # Total energy per rank (pJ) (Joule)
system.mem_ctrls.dram.rank1.averagePower   980.775070                       # Core power per rank (mW) (Watt)
system.mem_ctrls.dram.rank1.totalIdleTime            0                       # Total Idle time Per DRAM Rank (Tick)
system.mem_ctrls.dram.rank1.pwrStateTime::IDLE 2203325986988                       # Time in different power states (Tick)
system.mem_ctrls.dram.rank1.pwrStateTime::REF 364908250000                       # Time in different power states (Tick)
system.mem_ctrls.dram.rank1.pwrStateTime::SREF            0                       # Time in different power states (Tick)
system.mem_ctrls.dram.rank1.pwrStateTime::PRE_PDN            0                       # Time in different power states (Tick)
system.mem_ctrls.dram.rank1.pwrStateTime::ACT 5549247648512                       # Time in different power states (Tick)
system.mem_ctrls.dram.rank1.pwrStateTime::ACT_PDN            0                       # Time in different power states (Tick)
system.mem_ctrls.power_state.pwrStateResidencyTicks::UNDEFINED 8117481885500                       # Cumulative time (in ticks) in various power states (Tick)
system.membus.transDist::ReadReq            176360778                       # Transaction distribution (Count)
system.membus.transDist::ReadResp           176360778                       # Transaction distribution (Count)
system.membus.transDist::WriteReq            16020604                       # Transaction distribution (Count)
system.membus.transDist::WriteResp           16020604                       # Transaction distribution (Count)
system.membus.pktCount_system.cpu.icache_port::system.mem_ctrls.port    298613410                       # Packet count per connected requestor and responder (Count)
system.membus.pktCount_system.cpu.icache_port::total    298613410                       # Packet count per connected requestor and responder (Count)
system.membus.pktCount_system.cpu.dcache_port::system.mem_ctrls.port     86149354                       # Packet count per connected requestor and responder (Count)
system.membus.pktCount_system.cpu.dcache_port::total     86149354                       # Packet count per connected requestor and responder (Count)
system.membus.pktCount::total               384762764                       # Packet count per connected requestor and responder (Count)
system.membus.pktSize_system.cpu.icache_port::system.mem_ctrls.port   1194453640                       # Cumulative packet size per connected requestor and responder (Byte)
system.membus.pktSize_system.cpu.icache_port::total   1194453640                       # Cumulative packet size per connected requestor and responder (Byte)
system.membus.pktSize_system.cpu.dcache_port::system.mem_ctrls.port    344455921                       # Cumulative packet size per connected requestor and responder (Byte)
system.membus.pktSize_system.cpu.dcache_port::total    344455921                       # Cumulative packet size per connected requestor and responder (Byte)
system.membus.pktSize::total               1538909561                       # Cumulative packet size per connected requestor and responder (Byte)
system.membus.snoops                                0                       # Total snoops (Count)
system.membus.snoopTraffic                          0                       # Total snoop traffic (Byte)
system.membus.snoopFanout::samples          192381382                       # Request fanout histogram (Count)
system.membus.snoopFanout::mean                     0                       # Request fanout histogram (Count)
system.membus.snoopFanout::stdev                    0                       # Request fanout histogram (Count)
system.membus.snoopFanout::underflows               0      0.00%      0.00% # Request fanout histogram (Count)
system.membus.snoopFanout::0                192381382    100.00%    100.00% # Request fanout histogram (Count)
system.membus.snoopFanout::1                        0      0.00%    100.00% # Request fanout histogram (Count)
system.membus.snoopFanout::overflows                0      0.00%    100.00% # Request fanout histogram (Count)
system.membus.snoopFanout::min_value                0                       # Request fanout histogram (Count)
system.membus.snoopFanout::max_value                0                       # Request fanout histogram (Count)
system.membus.snoopFanout::total            192381382                       # Request fanout histogram (Count)
system.membus.power_state.pwrStateResidencyTicks::UNDEFINED 8117481885500                       # Cumulative time (in ticks) in various power states (Tick)
system.membus.reqLayer2.occupancy        102692013513                       # Layer occupancy (ticks) (Tick)
system.membus.reqLayer2.utilization               0.0                       # Layer utilization (Ratio)
system.membus.respLayer1.occupancy       121268613787                       # Layer occupancy (ticks) (Tick)
system.membus.respLayer1.utilization              0.0                       # Layer utilization (Ratio)
system.membus.respLayer2.occupancy        32559043973                       # Layer occupancy (ticks) (Tick)
system.membus.respLayer2.utilization              0.0                       # Layer utilization (Ratio)
system.membus.snoop_filter.totRequests              0                       # Total number of requests made to the snoop filter. (Count)
system.membus.snoop_filter.hitSingleRequests            0                       # Number of requests hitting in the snoop filter with a single holder of the requested data. (Count)
system.membus.snoop_filter.hitMultiRequests            0                       # Number of requests hitting in the snoop filter with multiple (>1) holders of the requested data. (Count)
system.membus.snoop_filter.totSnoops                0                       # Total number of snoops made to the snoop filter. (Count)
system.membus.snoop_filter.hitSingleSnoops            0                       # Number of snoops hitting in the snoop filter with a single holder of the requested data. (Count)
system.membus.snoop_filter.hitMultiSnoops            0                       # Number of snoops hitting in the snoop filter with multiple (>1) holders of the requested data. (Count)
system.voltage_domain.voltage                       1                       # Voltage in Volts (Volt)
system.workload.inst.arm                            0                       # number of arm instructions executed (Count)
system.workload.inst.quiesce                        0                       # number of quiesce instructions executed (Count)

---------- End Simulation Statistics   ----------
