
---------- Begin Simulation Statistics ----------
simSeconds                                   0.146314                       # Number of seconds simulated (Second)
simTicks                                 146313507750                       # Number of ticks simulated (Tick)
finalTick                                146313507750                       # Number of ticks from beginning of simulation (restored from checkpoints and never reset) (Tick)
simFreq                                  1000000000000                       # The number of ticks per simulated second ((Tick/Second))
hostSeconds                                   1154.69                       # Real time elapsed on the host (Second)
hostTickRate                                126712481                       # The number of ticks simulated per host second (ticks/s) ((Tick/Second))
hostMemory                                    7751204                       # Number of bytes of host memory used (Byte)
simInsts                                     95912921                       # Number of instructions simulated (Count)
simOps                                      173336942                       # Number of ops (including micro ops) simulated (Count)
hostInstRate                                    83064                       # Simulator instruction rate (inst/s) ((Count/Second))
hostOpRate                                     150116                       # Simulator op (including micro ops) rate (op/s) ((Count/Second))
system.clk_domain.clock                          1000                       # Clock period in ticks (Tick)
system.cpu0.numCycles                       585254032                       # Number of cpu cycles simulated (Cycle)
system.cpu0.numWorkItemsStarted                     0                       # Number of work items this cpu started (Count)
system.cpu0.numWorkItemsCompleted                   0                       # Number of work items this cpu completed (Count)
system.cpu0.instsAdded                      198004290                       # Number of instructions added to the IQ (excludes non-spec) (Count)
system.cpu0.nonSpecInstsAdded                    1174                       # Number of non-speculative instructions added to the IQ (Count)
system.cpu0.instsIssued                     198110100                       # Number of instructions issued (Count)
system.cpu0.squashedInstsIssued                  1968                       # Number of squashed instructions issued (Count)
system.cpu0.squashedInstsExamined            96115982                       # Number of squashed instructions iterated over during squash; mainly for profiling (Count)
system.cpu0.squashedOperandsExamined           755682                       # Number of squashed operands that are examined and possibly removed from graph (Count)
system.cpu0.squashedNonSpecRemoved                432                       # Number of squashed non-spec instructions that were removed (Count)
system.cpu0.numIssuedDist::samples          584836155                       # Number of insts issued each cycle (Count)
system.cpu0.numIssuedDist::mean              0.338745                       # Number of insts issued each cycle (Count)
system.cpu0.numIssuedDist::stdev             1.275101                       # Number of insts issued each cycle (Count)
system.cpu0.numIssuedDist::underflows               0      0.00%      0.00% # Number of insts issued each cycle (Count)
system.cpu0.numIssuedDist::0                529267508     90.50%     90.50% # Number of insts issued each cycle (Count)
system.cpu0.numIssuedDist::1                 14679843      2.51%     93.01% # Number of insts issued each cycle (Count)
system.cpu0.numIssuedDist::2                 10817576      1.85%     94.86% # Number of insts issued each cycle (Count)
system.cpu0.numIssuedDist::3                  4867810      0.83%     95.69% # Number of insts issued each cycle (Count)
system.cpu0.numIssuedDist::4                  6642827      1.14%     96.83% # Number of insts issued each cycle (Count)
system.cpu0.numIssuedDist::5                  5179259      0.89%     97.71% # Number of insts issued each cycle (Count)
system.cpu0.numIssuedDist::6                  4475058      0.77%     98.48% # Number of insts issued each cycle (Count)
system.cpu0.numIssuedDist::7                  3376468      0.58%     99.05% # Number of insts issued each cycle (Count)
system.cpu0.numIssuedDist::8                  5529806      0.95%    100.00% # Number of insts issued each cycle (Count)
system.cpu0.numIssuedDist::overflows                0      0.00%    100.00% # Number of insts issued each cycle (Count)
system.cpu0.numIssuedDist::min_value                0                       # Number of insts issued each cycle (Count)
system.cpu0.numIssuedDist::max_value                8                       # Number of insts issued each cycle (Count)
system.cpu0.numIssuedDist::total            584836155                       # Number of insts issued each cycle (Count)
system.cpu0.statFuBusy::No_OpClass                  0      0.00%      0.00% # attempts to use FU when none available (Count)
system.cpu0.statFuBusy::IntAlu                 129226      0.86%      0.86% # attempts to use FU when none available (Count)
system.cpu0.statFuBusy::IntMult                     0      0.00%      0.86% # attempts to use FU when none available (Count)
system.cpu0.statFuBusy::IntDiv                      0      0.00%      0.86% # attempts to use FU when none available (Count)
system.cpu0.statFuBusy::FloatAdd                    0      0.00%      0.86% # attempts to use FU when none available (Count)
system.cpu0.statFuBusy::FloatCmp                    0      0.00%      0.86% # attempts to use FU when none available (Count)
system.cpu0.statFuBusy::FloatCvt                    8      0.00%      0.86% # attempts to use FU when none available (Count)
system.cpu0.statFuBusy::FloatMult                   0      0.00%      0.86% # attempts to use FU when none available (Count)
system.cpu0.statFuBusy::FloatMultAcc                0      0.00%      0.86% # attempts to use FU when none available (Count)
system.cpu0.statFuBusy::FloatDiv                    0      0.00%      0.86% # attempts to use FU when none available (Count)
system.cpu0.statFuBusy::FloatMisc                   0      0.00%      0.86% # attempts to use FU when none available (Count)
system.cpu0.statFuBusy::FloatSqrt                   0      0.00%      0.86% # attempts to use FU when none available (Count)
system.cpu0.statFuBusy::SimdAdd                     2      0.00%      0.86% # attempts to use FU when none available (Count)
system.cpu0.statFuBusy::SimdAddAcc                  0      0.00%      0.86% # attempts to use FU when none available (Count)
system.cpu0.statFuBusy::SimdAlu                   112      0.00%      0.86% # attempts to use FU when none available (Count)
system.cpu0.statFuBusy::SimdCmp                     0      0.00%      0.86% # attempts to use FU when none available (Count)
system.cpu0.statFuBusy::SimdCvt                    90      0.00%      0.86% # attempts to use FU when none available (Count)
system.cpu0.statFuBusy::SimdMisc                   50      0.00%      0.86% # attempts to use FU when none available (Count)
system.cpu0.statFuBusy::SimdMult                    0      0.00%      0.86% # attempts to use FU when none available (Count)
system.cpu0.statFuBusy::SimdMultAcc                 0      0.00%      0.86% # attempts to use FU when none available (Count)
system.cpu0.statFuBusy::SimdShift                  15      0.00%      0.86% # attempts to use FU when none available (Count)
system.cpu0.statFuBusy::SimdShiftAcc                0      0.00%      0.86% # attempts to use FU when none available (Count)
system.cpu0.statFuBusy::SimdDiv                     0      0.00%      0.86% # attempts to use FU when none available (Count)
system.cpu0.statFuBusy::SimdSqrt                    0      0.00%      0.86% # attempts to use FU when none available (Count)
system.cpu0.statFuBusy::SimdFloatAdd           863165      5.76%      6.62% # attempts to use FU when none available (Count)
system.cpu0.statFuBusy::SimdFloatAlu                0      0.00%      6.62% # attempts to use FU when none available (Count)
system.cpu0.statFuBusy::SimdFloatCmp                0      0.00%      6.62% # attempts to use FU when none available (Count)
system.cpu0.statFuBusy::SimdFloatCvt                0      0.00%      6.62% # attempts to use FU when none available (Count)
system.cpu0.statFuBusy::SimdFloatDiv                0      0.00%      6.62% # attempts to use FU when none available (Count)
system.cpu0.statFuBusy::SimdFloatMisc               0      0.00%      6.62% # attempts to use FU when none available (Count)
system.cpu0.statFuBusy::SimdFloatMult               0      0.00%      6.62% # attempts to use FU when none available (Count)
system.cpu0.statFuBusy::SimdFloatMultAcc            0      0.00%      6.62% # attempts to use FU when none available (Count)
system.cpu0.statFuBusy::SimdFloatSqrt               0      0.00%      6.62% # attempts to use FU when none available (Count)
system.cpu0.statFuBusy::SimdReduceAdd               0      0.00%      6.62% # attempts to use FU when none available (Count)
system.cpu0.statFuBusy::SimdReduceAlu               0      0.00%      6.62% # attempts to use FU when none available (Count)
system.cpu0.statFuBusy::SimdReduceCmp               0      0.00%      6.62% # attempts to use FU when none available (Count)
system.cpu0.statFuBusy::SimdFloatReduceAdd            0      0.00%      6.62% # attempts to use FU when none available (Count)
system.cpu0.statFuBusy::SimdFloatReduceCmp            0      0.00%      6.62% # attempts to use FU when none available (Count)
system.cpu0.statFuBusy::SimdAes                     0      0.00%      6.62% # attempts to use FU when none available (Count)
system.cpu0.statFuBusy::SimdAesMix                  0      0.00%      6.62% # attempts to use FU when none available (Count)
system.cpu0.statFuBusy::SimdSha1Hash                0      0.00%      6.62% # attempts to use FU when none available (Count)
system.cpu0.statFuBusy::SimdSha1Hash2               0      0.00%      6.62% # attempts to use FU when none available (Count)
system.cpu0.statFuBusy::SimdSha256Hash              0      0.00%      6.62% # attempts to use FU when none available (Count)
system.cpu0.statFuBusy::SimdSha256Hash2             0      0.00%      6.62% # attempts to use FU when none available (Count)
system.cpu0.statFuBusy::SimdShaSigma2               0      0.00%      6.62% # attempts to use FU when none available (Count)
system.cpu0.statFuBusy::SimdShaSigma3               0      0.00%      6.62% # attempts to use FU when none available (Count)
system.cpu0.statFuBusy::SimdPredAlu                 0      0.00%      6.62% # attempts to use FU when none available (Count)
system.cpu0.statFuBusy::MemRead               1501571     10.01%     16.63% # attempts to use FU when none available (Count)
system.cpu0.statFuBusy::MemWrite              3500826     23.34%     39.98% # attempts to use FU when none available (Count)
system.cpu0.statFuBusy::FloatMemRead          7751657     51.69%     91.66% # attempts to use FU when none available (Count)
system.cpu0.statFuBusy::FloatMemWrite         1250195      8.34%    100.00% # attempts to use FU when none available (Count)
system.cpu0.statFuBusy::IprAccess                   0      0.00%    100.00% # attempts to use FU when none available (Count)
system.cpu0.statFuBusy::InstPrefetch                0      0.00%    100.00% # attempts to use FU when none available (Count)
system.cpu0.statIssuedInstType_0::No_OpClass     11014972      5.56%      5.56% # Number of instructions issued per FU type, per thread (Count)
system.cpu0.statIssuedInstType_0::IntAlu     76496023     38.61%     44.17% # Number of instructions issued per FU type, per thread (Count)
system.cpu0.statIssuedInstType_0::IntMult          278      0.00%     44.17% # Number of instructions issued per FU type, per thread (Count)
system.cpu0.statIssuedInstType_0::IntDiv         3083      0.00%     44.17% # Number of instructions issued per FU type, per thread (Count)
system.cpu0.statIssuedInstType_0::FloatAdd      5505839      2.78%     46.95% # Number of instructions issued per FU type, per thread (Count)
system.cpu0.statIssuedInstType_0::FloatCmp            0      0.00%     46.95% # Number of instructions issued per FU type, per thread (Count)
system.cpu0.statIssuedInstType_0::FloatCvt          490      0.00%     46.95% # Number of instructions issued per FU type, per thread (Count)
system.cpu0.statIssuedInstType_0::FloatMult            0      0.00%     46.95% # Number of instructions issued per FU type, per thread (Count)
system.cpu0.statIssuedInstType_0::FloatMultAcc            0      0.00%     46.95% # Number of instructions issued per FU type, per thread (Count)
system.cpu0.statIssuedInstType_0::FloatDiv            0      0.00%     46.95% # Number of instructions issued per FU type, per thread (Count)
system.cpu0.statIssuedInstType_0::FloatMisc            0      0.00%     46.95% # Number of instructions issued per FU type, per thread (Count)
system.cpu0.statIssuedInstType_0::FloatSqrt            0      0.00%     46.95% # Number of instructions issued per FU type, per thread (Count)
system.cpu0.statIssuedInstType_0::SimdAdd         2684      0.00%     46.96% # Number of instructions issued per FU type, per thread (Count)
system.cpu0.statIssuedInstType_0::SimdAddAcc            0      0.00%     46.96% # Number of instructions issued per FU type, per thread (Count)
system.cpu0.statIssuedInstType_0::SimdAlu        32491      0.02%     46.97% # Number of instructions issued per FU type, per thread (Count)
system.cpu0.statIssuedInstType_0::SimdCmp           70      0.00%     46.97% # Number of instructions issued per FU type, per thread (Count)
system.cpu0.statIssuedInstType_0::SimdCvt         6178      0.00%     46.97% # Number of instructions issued per FU type, per thread (Count)
system.cpu0.statIssuedInstType_0::SimdMisc         4048      0.00%     46.98% # Number of instructions issued per FU type, per thread (Count)
system.cpu0.statIssuedInstType_0::SimdMult            0      0.00%     46.98% # Number of instructions issued per FU type, per thread (Count)
system.cpu0.statIssuedInstType_0::SimdMultAcc            0      0.00%     46.98% # Number of instructions issued per FU type, per thread (Count)
system.cpu0.statIssuedInstType_0::SimdShift         1504      0.00%     46.98% # Number of instructions issued per FU type, per thread (Count)
system.cpu0.statIssuedInstType_0::SimdShiftAcc            0      0.00%     46.98% # Number of instructions issued per FU type, per thread (Count)
system.cpu0.statIssuedInstType_0::SimdDiv            0      0.00%     46.98% # Number of instructions issued per FU type, per thread (Count)
system.cpu0.statIssuedInstType_0::SimdSqrt            0      0.00%     46.98% # Number of instructions issued per FU type, per thread (Count)
system.cpu0.statIssuedInstType_0::SimdFloatAdd     10509130      5.30%     52.28% # Number of instructions issued per FU type, per thread (Count)
system.cpu0.statIssuedInstType_0::SimdFloatAlu            0      0.00%     52.28% # Number of instructions issued per FU type, per thread (Count)
system.cpu0.statIssuedInstType_0::SimdFloatCmp           28      0.00%     52.28% # Number of instructions issued per FU type, per thread (Count)
system.cpu0.statIssuedInstType_0::SimdFloatCvt      3017888      1.52%     53.81% # Number of instructions issued per FU type, per thread (Count)
system.cpu0.statIssuedInstType_0::SimdFloatDiv           18      0.00%     53.81% # Number of instructions issued per FU type, per thread (Count)
system.cpu0.statIssuedInstType_0::SimdFloatMisc            0      0.00%     53.81% # Number of instructions issued per FU type, per thread (Count)
system.cpu0.statIssuedInstType_0::SimdFloatMult      4006569      2.02%     55.83% # Number of instructions issued per FU type, per thread (Count)
system.cpu0.statIssuedInstType_0::SimdFloatMultAcc            0      0.00%     55.83% # Number of instructions issued per FU type, per thread (Count)
system.cpu0.statIssuedInstType_0::SimdFloatSqrt            0      0.00%     55.83% # Number of instructions issued per FU type, per thread (Count)
system.cpu0.statIssuedInstType_0::SimdReduceAdd            0      0.00%     55.83% # Number of instructions issued per FU type, per thread (Count)
system.cpu0.statIssuedInstType_0::SimdReduceAlu            0      0.00%     55.83% # Number of instructions issued per FU type, per thread (Count)
system.cpu0.statIssuedInstType_0::SimdReduceCmp            0      0.00%     55.83% # Number of instructions issued per FU type, per thread (Count)
system.cpu0.statIssuedInstType_0::SimdFloatReduceAdd            0      0.00%     55.83% # Number of instructions issued per FU type, per thread (Count)
system.cpu0.statIssuedInstType_0::SimdFloatReduceCmp            0      0.00%     55.83% # Number of instructions issued per FU type, per thread (Count)
system.cpu0.statIssuedInstType_0::SimdAes            0      0.00%     55.83% # Number of instructions issued per FU type, per thread (Count)
system.cpu0.statIssuedInstType_0::SimdAesMix            0      0.00%     55.83% # Number of instructions issued per FU type, per thread (Count)
system.cpu0.statIssuedInstType_0::SimdSha1Hash            0      0.00%     55.83% # Number of instructions issued per FU type, per thread (Count)
system.cpu0.statIssuedInstType_0::SimdSha1Hash2            0      0.00%     55.83% # Number of instructions issued per FU type, per thread (Count)
system.cpu0.statIssuedInstType_0::SimdSha256Hash            0      0.00%     55.83% # Number of instructions issued per FU type, per thread (Count)
system.cpu0.statIssuedInstType_0::SimdSha256Hash2            0      0.00%     55.83% # Number of instructions issued per FU type, per thread (Count)
system.cpu0.statIssuedInstType_0::SimdShaSigma2            0      0.00%     55.83% # Number of instructions issued per FU type, per thread (Count)
system.cpu0.statIssuedInstType_0::SimdShaSigma3            0      0.00%     55.83% # Number of instructions issued per FU type, per thread (Count)
system.cpu0.statIssuedInstType_0::SimdPredAlu            0      0.00%     55.83% # Number of instructions issued per FU type, per thread (Count)
system.cpu0.statIssuedInstType_0::MemRead      5680643      2.87%     58.70% # Number of instructions issued per FU type, per thread (Count)
system.cpu0.statIssuedInstType_0::MemWrite     12556655      6.34%     65.03% # Number of instructions issued per FU type, per thread (Count)
system.cpu0.statIssuedInstType_0::FloatMemRead     38767713     19.57%     84.60% # Number of instructions issued per FU type, per thread (Count)
system.cpu0.statIssuedInstType_0::FloatMemWrite     30503796     15.40%    100.00% # Number of instructions issued per FU type, per thread (Count)
system.cpu0.statIssuedInstType_0::IprAccess            0      0.00%    100.00% # Number of instructions issued per FU type, per thread (Count)
system.cpu0.statIssuedInstType_0::InstPrefetch            0      0.00%    100.00% # Number of instructions issued per FU type, per thread (Count)
system.cpu0.statIssuedInstType_0::total     198110100                       # Number of instructions issued per FU type, per thread (Count)
system.cpu0.issueRate                        0.338503                       # Inst issue rate ((Count/Cycle))
system.cpu0.fuBusy                           14996917                       # FU busy when requested (Count)
system.cpu0.fuBusyRate                       0.075700                       # FU busy rate (busy events/executed inst) ((Count/Count))
system.cpu0.intInstQueueReads               785334688                       # Number of integer instruction queue reads (Count)
system.cpu0.intInstQueueWrites              152879780                       # Number of integer instruction queue writes (Count)
system.cpu0.intInstQueueWakeupAccesses       86695250                       # Number of integer instruction queue wakeup accesses (Count)
system.cpu0.fpInstQueueReads                210720552                       # Number of floating instruction queue reads (Count)
system.cpu0.fpInstQueueWrites               141242014                       # Number of floating instruction queue writes (Count)
system.cpu0.fpInstQueueWakeupAccesses       100134824                       # Number of floating instruction queue wakeup accesses (Count)
system.cpu0.vecInstQueueReads                       0                       # Number of vector instruction queue reads (Count)
system.cpu0.vecInstQueueWrites                      0                       # Number of vector instruction queue writes (Count)
system.cpu0.vecInstQueueWakeupAccesses              0                       # Number of vector instruction queue wakeup accesses (Count)
system.cpu0.intAluAccesses                   91742407                       # Number of integer alu accesses (Count)
system.cpu0.fpAluAccesses                   110349638                       # Number of floating point alu accesses (Count)
system.cpu0.vecAluAccesses                          0                       # Number of vector alu accesses (Count)
system.cpu0.numInsts                        198083717                       # Number of executed instructions (Count)
system.cpu0.numLoadInsts                     44442268                       # Number of load instructions executed (Count)
system.cpu0.numSquashedInsts                    26383                       # Number of squashed instructions skipped in execute (Count)
system.cpu0.numSwp                                  0                       # Number of swp insts executed (Count)
system.cpu0.numNop                                  0                       # Number of nop insts executed (Count)
system.cpu0.numRefs                          87501742                       # Number of memory reference insts executed (Count)
system.cpu0.numBranches                       9118448                       # Number of branches executed (Count)
system.cpu0.numStoreInsts                    43059474                       # Number of stores executed (Count)
system.cpu0.numRate                          0.338458                       # Inst execution rate ((Count/Cycle))
system.cpu0.timesIdled                           1752                       # Number of times that the entire CPU went into an idle state and unscheduled itself (Count)
system.cpu0.idleCycles                         417877                       # Total number of cycles that the CPU has spent unscheduled due to idling (Cycle)
system.cpu0.committedInsts                   56099075                       # Number of Instructions Simulated (Count)
system.cpu0.committedOps                    101889476                       # Number of Ops (including micro ops) Simulated (Count)
system.cpu0.cpi                             10.432508                       # CPI: Cycles Per Instruction ((Cycle/Count))
system.cpu0.totalCpi                        10.432508                       # CPI: Total CPI of All Threads ((Cycle/Count))
system.cpu0.ipc                              0.095854                       # IPC: Instructions Per Cycle ((Count/Cycle))
system.cpu0.totalIpc                         0.095854                       # IPC: Total IPC of All Threads ((Count/Cycle))
system.cpu0.intRegfileReads                 155909929                       # Number of integer regfile reads (Count)
system.cpu0.intRegfileWrites                 53440852                       # Number of integer regfile writes (Count)
system.cpu0.fpRegfileReads                   96200411                       # Number of floating regfile reads (Count)
system.cpu0.fpRegfileWrites                  66623551                       # Number of floating regfile writes (Count)
system.cpu0.ccRegfileReads                   51537593                       # number of cc regfile reads (Count)
system.cpu0.ccRegfileWrites                  47676503                       # number of cc regfile writes (Count)
system.cpu0.miscRegfileReads                105758487                       # number of misc regfile reads (Count)
system.cpu0.miscRegfileWrites                     234                       # number of misc regfile writes (Count)
system.cpu0.MemDepUnit__0.insertedLoads      44227681                       # Number of loads inserted to the mem dependence unit. (Count)
system.cpu0.MemDepUnit__0.insertedStores     43065986                       # Number of stores inserted to the mem dependence unit. (Count)
system.cpu0.MemDepUnit__0.conflictingLoads       503978                       # Number of conflicting loads. (Count)
system.cpu0.MemDepUnit__0.conflictingStores       503051                       # Number of conflicting stores. (Count)
system.cpu0.MemDepUnit__1.insertedLoads             0                       # Number of loads inserted to the mem dependence unit. (Count)
system.cpu0.MemDepUnit__1.insertedStores            0                       # Number of stores inserted to the mem dependence unit. (Count)
system.cpu0.MemDepUnit__1.conflictingLoads            0                       # Number of conflicting loads. (Count)
system.cpu0.MemDepUnit__1.conflictingStores            0                       # Number of conflicting stores. (Count)
system.cpu0.MemDepUnit__2.insertedLoads             0                       # Number of loads inserted to the mem dependence unit. (Count)
system.cpu0.MemDepUnit__2.insertedStores            0                       # Number of stores inserted to the mem dependence unit. (Count)
system.cpu0.MemDepUnit__2.conflictingLoads            0                       # Number of conflicting loads. (Count)
system.cpu0.MemDepUnit__2.conflictingStores            0                       # Number of conflicting stores. (Count)
system.cpu0.MemDepUnit__3.insertedLoads             0                       # Number of loads inserted to the mem dependence unit. (Count)
system.cpu0.MemDepUnit__3.insertedStores            0                       # Number of stores inserted to the mem dependence unit. (Count)
system.cpu0.MemDepUnit__3.conflictingLoads            0                       # Number of conflicting loads. (Count)
system.cpu0.MemDepUnit__3.conflictingStores            0                       # Number of conflicting stores. (Count)
system.cpu0.branchPred.lookups               10671317                       # Number of BP lookups (Count)
system.cpu0.branchPred.condPredicted         10620489                       # Number of conditional branches predicted (Count)
system.cpu0.branchPred.condIncorrect             8961                       # Number of conditional branches incorrect (Count)
system.cpu0.branchPred.BTBLookups             7542667                       # Number of BTB lookups (Count)
system.cpu0.branchPred.BTBHits                7538928                       # Number of BTB hits (Count)
system.cpu0.branchPred.BTBHitRatio           0.999504                       # BTB Hit Ratio (Ratio)
system.cpu0.branchPred.RASUsed                  19296                       # Number of times the RAS was used to get a target. (Count)
system.cpu0.branchPred.RASIncorrect                 9                       # Number of incorrect RAS predictions. (Count)
system.cpu0.branchPred.indirectLookups           9164                       # Number of indirect predictor lookups. (Count)
system.cpu0.branchPred.indirectHits              5612                       # Number of indirect target hits. (Count)
system.cpu0.branchPred.indirectMisses            3552                       # Number of indirect misses. (Count)
system.cpu0.branchPred.indirectMispredicted          801                       # Number of mispredicted indirect branches. (Count)
system.cpu0.commit.commitSquashedInsts       85013851                       # The number of squashed insts skipped by commit (Count)
system.cpu0.commit.commitNonSpecStalls            742                       # The number of times commit has been forced to stall to communicate backwards (Count)
system.cpu0.commit.branchMispredicts             8609                       # The number of times a branch was mispredicted (Count)
system.cpu0.commit.numCommittedDist::samples    573511294                       # Number of insts commited each cycle (Count)
system.cpu0.commit.numCommittedDist::mean     0.177659                       # Number of insts commited each cycle (Count)
system.cpu0.commit.numCommittedDist::stdev     1.006538                       # Number of insts commited each cycle (Count)
system.cpu0.commit.numCommittedDist::underflows            0      0.00%      0.00% # Number of insts commited each cycle (Count)
system.cpu0.commit.numCommittedDist::0      546936912     95.37%     95.37% # Number of insts commited each cycle (Count)
system.cpu0.commit.numCommittedDist::1        8588597      1.50%     96.86% # Number of insts commited each cycle (Count)
system.cpu0.commit.numCommittedDist::2        2953590      0.52%     97.38% # Number of insts commited each cycle (Count)
system.cpu0.commit.numCommittedDist::3        2886649      0.50%     97.88% # Number of insts commited each cycle (Count)
system.cpu0.commit.numCommittedDist::4        4063000      0.71%     98.59% # Number of insts commited each cycle (Count)
system.cpu0.commit.numCommittedDist::5         498482      0.09%     98.68% # Number of insts commited each cycle (Count)
system.cpu0.commit.numCommittedDist::6          75759      0.01%     98.69% # Number of insts commited each cycle (Count)
system.cpu0.commit.numCommittedDist::7         531652      0.09%     98.78% # Number of insts commited each cycle (Count)
system.cpu0.commit.numCommittedDist::8        6976653      1.22%    100.00% # Number of insts commited each cycle (Count)
system.cpu0.commit.numCommittedDist::overflows            0      0.00%    100.00% # Number of insts commited each cycle (Count)
system.cpu0.commit.numCommittedDist::min_value            0                       # Number of insts commited each cycle (Count)
system.cpu0.commit.numCommittedDist::max_value            8                       # Number of insts commited each cycle (Count)
system.cpu0.commit.numCommittedDist::total    573511294                       # Number of insts commited each cycle (Count)
system.cpu0.commit.instsCommitted            56099075                       # Number of instructions committed (Count)
system.cpu0.commit.opsCommitted             101889476                       # Number of ops (including micro ops) committed (Count)
system.cpu0.commit.memRefs                   30177675                       # Number of memory references committed (Count)
system.cpu0.commit.loads                     19133531                       # Number of loads committed (Count)
system.cpu0.commit.amos                             0                       # Number of atomic instructions committed (Count)
system.cpu0.commit.membars                        336                       # Number of memory barriers committed (Count)
system.cpu0.commit.branches                   6578313                       # Number of branches committed (Count)
system.cpu0.commit.vectorInstructions               0                       # Number of committed Vector instructions. (Count)
system.cpu0.commit.floating                  59068074                       # Number of committed floating point instructions. (Count)
system.cpu0.commit.integer                   70819922                       # Number of committed integer instructions. (Count)
system.cpu0.commit.functionCalls                 7977                       # Number of function calls committed. (Count)
system.cpu0.commit.committedInstType_0::No_OpClass         6732      0.01%      0.01% # Class of committed instruction (Count)
system.cpu0.commit.committedInstType_0::IntAlu     48661449     47.76%     47.77% # Class of committed instruction (Count)
system.cpu0.commit.committedInstType_0::IntMult          254      0.00%     47.77% # Class of committed instruction (Count)
system.cpu0.commit.committedInstType_0::IntDiv         2818      0.00%     47.77% # Class of committed instruction (Count)
system.cpu0.commit.committedInstType_0::FloatAdd      5502915      5.40%     53.17% # Class of committed instruction (Count)
system.cpu0.commit.committedInstType_0::FloatCmp            0      0.00%     53.17% # Class of committed instruction (Count)
system.cpu0.commit.committedInstType_0::FloatCvt          416      0.00%     53.17% # Class of committed instruction (Count)
system.cpu0.commit.committedInstType_0::FloatMult            0      0.00%     53.17% # Class of committed instruction (Count)
system.cpu0.commit.committedInstType_0::FloatMultAcc            0      0.00%     53.17% # Class of committed instruction (Count)
system.cpu0.commit.committedInstType_0::FloatDiv            0      0.00%     53.17% # Class of committed instruction (Count)
system.cpu0.commit.committedInstType_0::FloatMisc            0      0.00%     53.17% # Class of committed instruction (Count)
system.cpu0.commit.committedInstType_0::FloatSqrt            0      0.00%     53.17% # Class of committed instruction (Count)
system.cpu0.commit.committedInstType_0::SimdAdd         2098      0.00%     53.17% # Class of committed instruction (Count)
system.cpu0.commit.committedInstType_0::SimdAddAcc            0      0.00%     53.17% # Class of committed instruction (Count)
system.cpu0.commit.committedInstType_0::SimdAlu        12668      0.01%     53.18% # Class of committed instruction (Count)
system.cpu0.commit.committedInstType_0::SimdCmp           66      0.00%     53.18% # Class of committed instruction (Count)
system.cpu0.commit.committedInstType_0::SimdCvt         4504      0.00%     53.19% # Class of committed instruction (Count)
system.cpu0.commit.committedInstType_0::SimdMisc         3385      0.00%     53.19% # Class of committed instruction (Count)
system.cpu0.commit.committedInstType_0::SimdMult            0      0.00%     53.19% # Class of committed instruction (Count)
system.cpu0.commit.committedInstType_0::SimdMultAcc            0      0.00%     53.19% # Class of committed instruction (Count)
system.cpu0.commit.committedInstType_0::SimdShift          727      0.00%     53.19% # Class of committed instruction (Count)
system.cpu0.commit.committedInstType_0::SimdShiftAcc            0      0.00%     53.19% # Class of committed instruction (Count)
system.cpu0.commit.committedInstType_0::SimdDiv            0      0.00%     53.19% # Class of committed instruction (Count)
system.cpu0.commit.committedInstType_0::SimdSqrt            0      0.00%     53.19% # Class of committed instruction (Count)
system.cpu0.commit.committedInstType_0::SimdFloatAdd     10504562     10.31%     63.50% # Class of committed instruction (Count)
system.cpu0.commit.committedInstType_0::SimdFloatAlu            0      0.00%     63.50% # Class of committed instruction (Count)
system.cpu0.commit.committedInstType_0::SimdFloatCmp           24      0.00%     63.50% # Class of committed instruction (Count)
system.cpu0.commit.committedInstType_0::SimdFloatCvt      3006856      2.95%     66.45% # Class of committed instruction (Count)
system.cpu0.commit.committedInstType_0::SimdFloatDiv           15      0.00%     66.45% # Class of committed instruction (Count)
system.cpu0.commit.committedInstType_0::SimdFloatMisc            0      0.00%     66.45% # Class of committed instruction (Count)
system.cpu0.commit.committedInstType_0::SimdFloatMult      4002312      3.93%     70.38% # Class of committed instruction (Count)
system.cpu0.commit.committedInstType_0::SimdFloatMultAcc            0      0.00%     70.38% # Class of committed instruction (Count)
system.cpu0.commit.committedInstType_0::SimdFloatSqrt            0      0.00%     70.38% # Class of committed instruction (Count)
system.cpu0.commit.committedInstType_0::SimdReduceAdd            0      0.00%     70.38% # Class of committed instruction (Count)
system.cpu0.commit.committedInstType_0::SimdReduceAlu            0      0.00%     70.38% # Class of committed instruction (Count)
system.cpu0.commit.committedInstType_0::SimdReduceCmp            0      0.00%     70.38% # Class of committed instruction (Count)
system.cpu0.commit.committedInstType_0::SimdFloatReduceAdd            0      0.00%     70.38% # Class of committed instruction (Count)
system.cpu0.commit.committedInstType_0::SimdFloatReduceCmp            0      0.00%     70.38% # Class of committed instruction (Count)
system.cpu0.commit.committedInstType_0::SimdAes            0      0.00%     70.38% # Class of committed instruction (Count)
system.cpu0.commit.committedInstType_0::SimdAesMix            0      0.00%     70.38% # Class of committed instruction (Count)
system.cpu0.commit.committedInstType_0::SimdSha1Hash            0      0.00%     70.38% # Class of committed instruction (Count)
system.cpu0.commit.committedInstType_0::SimdSha1Hash2            0      0.00%     70.38% # Class of committed instruction (Count)
system.cpu0.commit.committedInstType_0::SimdSha256Hash            0      0.00%     70.38% # Class of committed instruction (Count)
system.cpu0.commit.committedInstType_0::SimdSha256Hash2            0      0.00%     70.38% # Class of committed instruction (Count)
system.cpu0.commit.committedInstType_0::SimdShaSigma2            0      0.00%     70.38% # Class of committed instruction (Count)
system.cpu0.commit.committedInstType_0::SimdShaSigma3            0      0.00%     70.38% # Class of committed instruction (Count)
system.cpu0.commit.committedInstType_0::SimdPredAlu            0      0.00%     70.38% # Class of committed instruction (Count)
system.cpu0.commit.committedInstType_0::MemRead       615462      0.60%     70.99% # Class of committed instruction (Count)
system.cpu0.commit.committedInstType_0::MemWrite      1540172      1.51%     72.50% # Class of committed instruction (Count)
system.cpu0.commit.committedInstType_0::FloatMemRead     18518069     18.17%     90.67% # Class of committed instruction (Count)
system.cpu0.commit.committedInstType_0::FloatMemWrite      9503972      9.33%    100.00% # Class of committed instruction (Count)
system.cpu0.commit.committedInstType_0::IprAccess            0      0.00%    100.00% # Class of committed instruction (Count)
system.cpu0.commit.committedInstType_0::InstPrefetch            0      0.00%    100.00% # Class of committed instruction (Count)
system.cpu0.commit.committedInstType_0::total    101889476                       # Class of committed instruction (Count)
system.cpu0.commit.commitEligibleSamples      6976653                       # number cycles where commit BW limit reached (Cycle)
system.cpu0.dcache.demandHits::cpu0.data     36595282                       # number of demand (read+write) hits (Count)
system.cpu0.dcache.demandHits::total         36595282                       # number of demand (read+write) hits (Count)
system.cpu0.dcache.overallHits::cpu0.data     41838893                       # number of overall hits (Count)
system.cpu0.dcache.overallHits::total        41838893                       # number of overall hits (Count)
system.cpu0.dcache.demandMisses::cpu0.data     12140413                       # number of demand (read+write) misses (Count)
system.cpu0.dcache.demandMisses::total       12140413                       # number of demand (read+write) misses (Count)
system.cpu0.dcache.overallMisses::cpu0.data     12396624                       # number of overall misses (Count)
system.cpu0.dcache.overallMisses::total      12396624                       # number of overall misses (Count)
system.cpu0.dcache.demandMissLatency::cpu0.data 486266802234                       # number of demand (read+write) miss ticks (Tick)
system.cpu0.dcache.demandMissLatency::total 486266802234                       # number of demand (read+write) miss ticks (Tick)
system.cpu0.dcache.overallMissLatency::cpu0.data 486266802234                       # number of overall miss ticks (Tick)
system.cpu0.dcache.overallMissLatency::total 486266802234                       # number of overall miss ticks (Tick)
system.cpu0.dcache.demandAccesses::cpu0.data     48735695                       # number of demand (read+write) accesses (Count)
system.cpu0.dcache.demandAccesses::total     48735695                       # number of demand (read+write) accesses (Count)
system.cpu0.dcache.overallAccesses::cpu0.data     54235517                       # number of overall (read+write) accesses (Count)
system.cpu0.dcache.overallAccesses::total     54235517                       # number of overall (read+write) accesses (Count)
system.cpu0.dcache.demandMissRate::cpu0.data     0.249107                       # miss rate for demand accesses (Ratio)
system.cpu0.dcache.demandMissRate::total     0.249107                       # miss rate for demand accesses (Ratio)
system.cpu0.dcache.overallMissRate::cpu0.data     0.228570                       # miss rate for overall accesses (Ratio)
system.cpu0.dcache.overallMissRate::total     0.228570                       # miss rate for overall accesses (Ratio)
system.cpu0.dcache.demandAvgMissLatency::cpu0.data 40053.563436                       # average overall miss latency in ticks ((Tick/Count))
system.cpu0.dcache.demandAvgMissLatency::total 40053.563436                       # average overall miss latency in ticks ((Tick/Count))
system.cpu0.dcache.overallAvgMissLatency::cpu0.data 39225.744221                       # average overall miss latency ((Tick/Count))
system.cpu0.dcache.overallAvgMissLatency::total 39225.744221                       # average overall miss latency ((Tick/Count))
system.cpu0.dcache.blockedCycles::no_mshrs     30383695                       # number of cycles access was blocked (Cycle)
system.cpu0.dcache.blockedCycles::no_targets         5700                       # number of cycles access was blocked (Cycle)
system.cpu0.dcache.blockedCauses::no_mshrs       674473                       # number of times access was blocked (Count)
system.cpu0.dcache.blockedCauses::no_targets           37                       # number of times access was blocked (Count)
system.cpu0.dcache.avgBlocked::no_mshrs     45.048052                       # average number of cycles each access was blocked ((Cycle/Count))
system.cpu0.dcache.avgBlocked::no_targets   154.054054                       # average number of cycles each access was blocked ((Cycle/Count))
system.cpu0.dcache.writebacks::writebacks      1252084                       # number of writebacks (Count)
system.cpu0.dcache.writebacks::total          1252084                       # number of writebacks (Count)
system.cpu0.dcache.demandMshrHits::cpu0.data      9259773                       # number of demand (read+write) MSHR hits (Count)
system.cpu0.dcache.demandMshrHits::total      9259773                       # number of demand (read+write) MSHR hits (Count)
system.cpu0.dcache.overallMshrHits::cpu0.data      9259773                       # number of overall MSHR hits (Count)
system.cpu0.dcache.overallMshrHits::total      9259773                       # number of overall MSHR hits (Count)
system.cpu0.dcache.demandMshrMisses::cpu0.data      2880640                       # number of demand (read+write) MSHR misses (Count)
system.cpu0.dcache.demandMshrMisses::total      2880640                       # number of demand (read+write) MSHR misses (Count)
system.cpu0.dcache.overallMshrMisses::cpu0.data      3130635                       # number of overall MSHR misses (Count)
system.cpu0.dcache.overallMshrMisses::total      3130635                       # number of overall MSHR misses (Count)
system.cpu0.dcache.demandMshrMissLatency::cpu0.data 281429786486                       # number of demand (read+write) MSHR miss ticks (Tick)
system.cpu0.dcache.demandMshrMissLatency::total 281429786486                       # number of demand (read+write) MSHR miss ticks (Tick)
system.cpu0.dcache.overallMshrMissLatency::cpu0.data 304367789736                       # number of overall MSHR miss ticks (Tick)
system.cpu0.dcache.overallMshrMissLatency::total 304367789736                       # number of overall MSHR miss ticks (Tick)
system.cpu0.dcache.demandMshrMissRate::cpu0.data     0.059107                       # mshr miss ratio for demand accesses (Ratio)
system.cpu0.dcache.demandMshrMissRate::total     0.059107                       # mshr miss ratio for demand accesses (Ratio)
system.cpu0.dcache.overallMshrMissRate::cpu0.data     0.057723                       # mshr miss ratio for overall accesses (Ratio)
system.cpu0.dcache.overallMshrMissRate::total     0.057723                       # mshr miss ratio for overall accesses (Ratio)
system.cpu0.dcache.demandAvgMshrMissLatency::cpu0.data 97696.965426                       # average overall mshr miss latency ((Tick/Count))
system.cpu0.dcache.demandAvgMshrMissLatency::total 97696.965426                       # average overall mshr miss latency ((Tick/Count))
system.cpu0.dcache.overallAvgMshrMissLatency::cpu0.data 97222.381318                       # average overall mshr miss latency ((Tick/Count))
system.cpu0.dcache.overallAvgMshrMissLatency::total 97222.381318                       # average overall mshr miss latency ((Tick/Count))
system.cpu0.dcache.replacements               3129519                       # number of replacements (Count)
system.cpu0.dcache.LockedRMWReadReq.hits::cpu0.data          126                       # number of LockedRMWReadReq hits (Count)
system.cpu0.dcache.LockedRMWReadReq.hits::total          126                       # number of LockedRMWReadReq hits (Count)
system.cpu0.dcache.LockedRMWReadReq.misses::cpu0.data           42                       # number of LockedRMWReadReq misses (Count)
system.cpu0.dcache.LockedRMWReadReq.misses::total           42                       # number of LockedRMWReadReq misses (Count)
system.cpu0.dcache.LockedRMWReadReq.missLatency::cpu0.data       798750                       # number of LockedRMWReadReq miss ticks (Tick)
system.cpu0.dcache.LockedRMWReadReq.missLatency::total       798750                       # number of LockedRMWReadReq miss ticks (Tick)
system.cpu0.dcache.LockedRMWReadReq.accesses::cpu0.data          168                       # number of LockedRMWReadReq accesses(hits+misses) (Count)
system.cpu0.dcache.LockedRMWReadReq.accesses::total          168                       # number of LockedRMWReadReq accesses(hits+misses) (Count)
system.cpu0.dcache.LockedRMWReadReq.missRate::cpu0.data     0.250000                       # miss rate for LockedRMWReadReq accesses (Ratio)
system.cpu0.dcache.LockedRMWReadReq.missRate::total     0.250000                       # miss rate for LockedRMWReadReq accesses (Ratio)
system.cpu0.dcache.LockedRMWReadReq.avgMissLatency::cpu0.data 19017.857143                       # average LockedRMWReadReq miss latency ((Tick/Count))
system.cpu0.dcache.LockedRMWReadReq.avgMissLatency::total 19017.857143                       # average LockedRMWReadReq miss latency ((Tick/Count))
system.cpu0.dcache.LockedRMWReadReq.mshrMisses::cpu0.data           42                       # number of LockedRMWReadReq MSHR misses (Count)
system.cpu0.dcache.LockedRMWReadReq.mshrMisses::total           42                       # number of LockedRMWReadReq MSHR misses (Count)
system.cpu0.dcache.LockedRMWReadReq.mshrMissLatency::cpu0.data      1945750                       # number of LockedRMWReadReq MSHR miss ticks (Tick)
system.cpu0.dcache.LockedRMWReadReq.mshrMissLatency::total      1945750                       # number of LockedRMWReadReq MSHR miss ticks (Tick)
system.cpu0.dcache.LockedRMWReadReq.mshrMissRate::cpu0.data     0.250000                       # mshr miss rate for LockedRMWReadReq accesses (Ratio)
system.cpu0.dcache.LockedRMWReadReq.mshrMissRate::total     0.250000                       # mshr miss rate for LockedRMWReadReq accesses (Ratio)
system.cpu0.dcache.LockedRMWReadReq.avgMshrMissLatency::cpu0.data 46327.380952                       # average LockedRMWReadReq mshr miss latency ((Tick/Count))
system.cpu0.dcache.LockedRMWReadReq.avgMshrMissLatency::total 46327.380952                       # average LockedRMWReadReq mshr miss latency ((Tick/Count))
system.cpu0.dcache.LockedRMWWriteReq.hits::cpu0.data          168                       # number of LockedRMWWriteReq hits (Count)
system.cpu0.dcache.LockedRMWWriteReq.hits::total          168                       # number of LockedRMWWriteReq hits (Count)
system.cpu0.dcache.LockedRMWWriteReq.accesses::cpu0.data          168                       # number of LockedRMWWriteReq accesses(hits+misses) (Count)
system.cpu0.dcache.LockedRMWWriteReq.accesses::total          168                       # number of LockedRMWWriteReq accesses(hits+misses) (Count)
system.cpu0.dcache.ReadReq.hits::cpu0.data     27740124                       # number of ReadReq hits (Count)
system.cpu0.dcache.ReadReq.hits::total       27740124                       # number of ReadReq hits (Count)
system.cpu0.dcache.ReadReq.misses::cpu0.data     10951558                       # number of ReadReq misses (Count)
system.cpu0.dcache.ReadReq.misses::total     10951558                       # number of ReadReq misses (Count)
system.cpu0.dcache.ReadReq.missLatency::cpu0.data 372492506500                       # number of ReadReq miss ticks (Tick)
system.cpu0.dcache.ReadReq.missLatency::total 372492506500                       # number of ReadReq miss ticks (Tick)
system.cpu0.dcache.ReadReq.accesses::cpu0.data     38691682                       # number of ReadReq accesses(hits+misses) (Count)
system.cpu0.dcache.ReadReq.accesses::total     38691682                       # number of ReadReq accesses(hits+misses) (Count)
system.cpu0.dcache.ReadReq.missRate::cpu0.data     0.283047                       # miss rate for ReadReq accesses (Ratio)
system.cpu0.dcache.ReadReq.missRate::total     0.283047                       # miss rate for ReadReq accesses (Ratio)
system.cpu0.dcache.ReadReq.avgMissLatency::cpu0.data 34012.741064                       # average ReadReq miss latency ((Tick/Count))
system.cpu0.dcache.ReadReq.avgMissLatency::total 34012.741064                       # average ReadReq miss latency ((Tick/Count))
system.cpu0.dcache.ReadReq.mshrHits::cpu0.data      9259763                       # number of ReadReq MSHR hits (Count)
system.cpu0.dcache.ReadReq.mshrHits::total      9259763                       # number of ReadReq MSHR hits (Count)
system.cpu0.dcache.ReadReq.mshrMisses::cpu0.data      1691795                       # number of ReadReq MSHR misses (Count)
system.cpu0.dcache.ReadReq.mshrMisses::total      1691795                       # number of ReadReq MSHR misses (Count)
system.cpu0.dcache.ReadReq.mshrMissLatency::cpu0.data 168250457250                       # number of ReadReq MSHR miss ticks (Tick)
system.cpu0.dcache.ReadReq.mshrMissLatency::total 168250457250                       # number of ReadReq MSHR miss ticks (Tick)
system.cpu0.dcache.ReadReq.mshrMissRate::cpu0.data     0.043725                       # mshr miss rate for ReadReq accesses (Ratio)
system.cpu0.dcache.ReadReq.mshrMissRate::total     0.043725                       # mshr miss rate for ReadReq accesses (Ratio)
system.cpu0.dcache.ReadReq.avgMshrMissLatency::cpu0.data 99450.853827                       # average ReadReq mshr miss latency ((Tick/Count))
system.cpu0.dcache.ReadReq.avgMshrMissLatency::total 99450.853827                       # average ReadReq mshr miss latency ((Tick/Count))
system.cpu0.dcache.SoftPFReq.hits::cpu0.data      5243611                       # number of SoftPFReq hits (Count)
system.cpu0.dcache.SoftPFReq.hits::total      5243611                       # number of SoftPFReq hits (Count)
system.cpu0.dcache.SoftPFReq.misses::cpu0.data       256211                       # number of SoftPFReq misses (Count)
system.cpu0.dcache.SoftPFReq.misses::total       256211                       # number of SoftPFReq misses (Count)
system.cpu0.dcache.SoftPFReq.accesses::cpu0.data      5499822                       # number of SoftPFReq accesses(hits+misses) (Count)
system.cpu0.dcache.SoftPFReq.accesses::total      5499822                       # number of SoftPFReq accesses(hits+misses) (Count)
system.cpu0.dcache.SoftPFReq.missRate::cpu0.data     0.046585                       # miss rate for SoftPFReq accesses (Ratio)
system.cpu0.dcache.SoftPFReq.missRate::total     0.046585                       # miss rate for SoftPFReq accesses (Ratio)
system.cpu0.dcache.SoftPFReq.mshrMisses::cpu0.data       249995                       # number of SoftPFReq MSHR misses (Count)
system.cpu0.dcache.SoftPFReq.mshrMisses::total       249995                       # number of SoftPFReq MSHR misses (Count)
system.cpu0.dcache.SoftPFReq.mshrMissLatency::cpu0.data  22938003250                       # number of SoftPFReq MSHR miss ticks (Tick)
system.cpu0.dcache.SoftPFReq.mshrMissLatency::total  22938003250                       # number of SoftPFReq MSHR miss ticks (Tick)
system.cpu0.dcache.SoftPFReq.mshrMissRate::cpu0.data     0.045455                       # mshr miss rate for SoftPFReq accesses (Ratio)
system.cpu0.dcache.SoftPFReq.mshrMissRate::total     0.045455                       # mshr miss rate for SoftPFReq accesses (Ratio)
system.cpu0.dcache.SoftPFReq.avgMshrMissLatency::cpu0.data 91753.848077                       # average SoftPFReq mshr miss latency ((Tick/Count))
system.cpu0.dcache.SoftPFReq.avgMshrMissLatency::total 91753.848077                       # average SoftPFReq mshr miss latency ((Tick/Count))
system.cpu0.dcache.WriteReq.hits::cpu0.data      8855158                       # number of WriteReq hits (Count)
system.cpu0.dcache.WriteReq.hits::total       8855158                       # number of WriteReq hits (Count)
system.cpu0.dcache.WriteReq.misses::cpu0.data      1188855                       # number of WriteReq misses (Count)
system.cpu0.dcache.WriteReq.misses::total      1188855                       # number of WriteReq misses (Count)
system.cpu0.dcache.WriteReq.missLatency::cpu0.data 113774295734                       # number of WriteReq miss ticks (Tick)
system.cpu0.dcache.WriteReq.missLatency::total 113774295734                       # number of WriteReq miss ticks (Tick)
system.cpu0.dcache.WriteReq.accesses::cpu0.data     10044013                       # number of WriteReq accesses(hits+misses) (Count)
system.cpu0.dcache.WriteReq.accesses::total     10044013                       # number of WriteReq accesses(hits+misses) (Count)
system.cpu0.dcache.WriteReq.missRate::cpu0.data     0.118365                       # miss rate for WriteReq accesses (Ratio)
system.cpu0.dcache.WriteReq.missRate::total     0.118365                       # miss rate for WriteReq accesses (Ratio)
system.cpu0.dcache.WriteReq.avgMissLatency::cpu0.data 95700.733676                       # average WriteReq miss latency ((Tick/Count))
system.cpu0.dcache.WriteReq.avgMissLatency::total 95700.733676                       # average WriteReq miss latency ((Tick/Count))
system.cpu0.dcache.WriteReq.mshrHits::cpu0.data           10                       # number of WriteReq MSHR hits (Count)
system.cpu0.dcache.WriteReq.mshrHits::total           10                       # number of WriteReq MSHR hits (Count)
system.cpu0.dcache.WriteReq.mshrMisses::cpu0.data      1188845                       # number of WriteReq MSHR misses (Count)
system.cpu0.dcache.WriteReq.mshrMisses::total      1188845                       # number of WriteReq MSHR misses (Count)
system.cpu0.dcache.WriteReq.mshrMissLatency::cpu0.data 113179329236                       # number of WriteReq MSHR miss ticks (Tick)
system.cpu0.dcache.WriteReq.mshrMissLatency::total 113179329236                       # number of WriteReq MSHR miss ticks (Tick)
system.cpu0.dcache.WriteReq.mshrMissRate::cpu0.data     0.118364                       # mshr miss rate for WriteReq accesses (Ratio)
system.cpu0.dcache.WriteReq.mshrMissRate::total     0.118364                       # mshr miss rate for WriteReq accesses (Ratio)
system.cpu0.dcache.WriteReq.avgMshrMissLatency::cpu0.data 95201.081080                       # average WriteReq mshr miss latency ((Tick/Count))
system.cpu0.dcache.WriteReq.avgMshrMissLatency::total 95201.081080                       # average WriteReq mshr miss latency ((Tick/Count))
system.cpu0.dcache.power_state.pwrStateResidencyTicks::UNDEFINED 146313507750                       # Cumulative time (in ticks) in various power states (Tick)
system.cpu0.dcache.tags.tagsInUse         1023.570180                       # Average ticks per tags in use ((Tick/Count))
system.cpu0.dcache.tags.totalRefs            44969867                       # Total number of references to valid blocks. (Count)
system.cpu0.dcache.tags.sampledRefs           3130607                       # Sample count of references to valid blocks. (Count)
system.cpu0.dcache.tags.avgRefs             14.364584                       # Average number of references to valid blocks. ((Count/Count))
system.cpu0.dcache.tags.warmupTick             170250                       # The tick when the warmup percentage was hit. (Tick)
system.cpu0.dcache.tags.occupancies::cpu0.data  1023.570180                       # Average occupied blocks per tick, per requestor ((Count/Tick))
system.cpu0.dcache.tags.avgOccs::cpu0.data     0.999580                       # Average percentage of cache occupancy ((Ratio/Tick))
system.cpu0.dcache.tags.avgOccs::total       0.999580                       # Average percentage of cache occupancy ((Ratio/Tick))
system.cpu0.dcache.tags.occupanciesTaskId::1024         1024                       # Occupied blocks per task id (Count)
system.cpu0.dcache.tags.ageTaskId_1024::0          127                       # Occupied blocks per task id, per block age (Count)
system.cpu0.dcache.tags.ageTaskId_1024::1          896                       # Occupied blocks per task id, per block age (Count)
system.cpu0.dcache.tags.ageTaskId_1024::4            1                       # Occupied blocks per task id, per block age (Count)
system.cpu0.dcache.tags.ratioOccsTaskId::1024            1                       # Ratio of occupied blocks and all blocks, per task id (Ratio)
system.cpu0.dcache.tags.tagAccesses         111602313                       # Number of tag accesses (Count)
system.cpu0.dcache.tags.dataAccesses        111602313                       # Number of data accesses (Count)
system.cpu0.dcache.tags.power_state.pwrStateResidencyTicks::UNDEFINED 146313507750                       # Cumulative time (in ticks) in various power states (Tick)
system.cpu0.decode.idleCycles                 6278573                       # Number of cycles decode is idle (Cycle)
system.cpu0.decode.blockedCycles            550182650                       # Number of cycles decode is blocked (Cycle)
system.cpu0.decode.runCycles                 20974969                       # Number of cycles decode is running (Cycle)
system.cpu0.decode.unblockCycles              6388472                       # Number of cycles decode is unblocking (Cycle)
system.cpu0.decode.squashCycles               1011491                       # Number of cycles decode is squashing (Cycle)
system.cpu0.decode.branchResolved             6535304                       # Number of times decode resolved a branch (Count)
system.cpu0.decode.branchMispred                 1349                       # Number of times decode detected a branch misprediction (Count)
system.cpu0.decode.decodedInsts             208613517                       # Number of instructions handled by decode (Count)
system.cpu0.decode.squashedInsts                 6472                       # Number of squashed instructions handled by decode (Count)
system.cpu0.dtb_walker_cache.blockedCycles::no_mshrs            0                       # number of cycles access was blocked (Cycle)
system.cpu0.dtb_walker_cache.blockedCycles::no_targets            0                       # number of cycles access was blocked (Cycle)
system.cpu0.dtb_walker_cache.blockedCauses::no_mshrs            0                       # number of times access was blocked (Count)
system.cpu0.dtb_walker_cache.blockedCauses::no_targets            0                       # number of times access was blocked (Count)
system.cpu0.dtb_walker_cache.avgBlocked::no_mshrs          nan                       # average number of cycles each access was blocked ((Cycle/Count))
system.cpu0.dtb_walker_cache.avgBlocked::no_targets          nan                       # average number of cycles each access was blocked ((Cycle/Count))
system.cpu0.dtb_walker_cache.replacements            0                       # number of replacements (Count)
system.cpu0.dtb_walker_cache.power_state.pwrStateResidencyTicks::UNDEFINED 146313507750                       # Cumulative time (in ticks) in various power states (Tick)
system.cpu0.dtb_walker_cache.tags.tagsInUse            0                       # Average ticks per tags in use ((Tick/Count))
system.cpu0.dtb_walker_cache.tags.totalRefs            0                       # Total number of references to valid blocks. (Count)
system.cpu0.dtb_walker_cache.tags.sampledRefs            0                       # Sample count of references to valid blocks. (Count)
system.cpu0.dtb_walker_cache.tags.avgRefs          nan                       # Average number of references to valid blocks. ((Count/Count))
system.cpu0.dtb_walker_cache.tags.warmupTick            0                       # The tick when the warmup percentage was hit. (Tick)
system.cpu0.dtb_walker_cache.tags.tagAccesses            0                       # Number of tag accesses (Count)
system.cpu0.dtb_walker_cache.tags.dataAccesses            0                       # Number of data accesses (Count)
system.cpu0.dtb_walker_cache.tags.power_state.pwrStateResidencyTicks::UNDEFINED 146313507750                       # Cumulative time (in ticks) in various power states (Tick)
system.cpu0.fetch.icacheStallCycles          15222420                       # Number of cycles fetch is stalled on an Icache miss (Cycle)
system.cpu0.fetch.insts                     115017601                       # Number of instructions fetch has processed (Count)
system.cpu0.fetch.branches                   10671317                       # Number of branches that fetch encountered (Count)
system.cpu0.fetch.predictedBranches           7563836                       # Number of branches that fetch has predicted taken (Count)
system.cpu0.fetch.cycles                    568592592                       # Number of cycles fetch has run and was not squashing or blocked (Cycle)
system.cpu0.fetch.squashCycles                2025644                       # Number of cycles fetch has spent squashing (Cycle)
system.cpu0.fetch.miscStallCycles                1043                       # Number of cycles fetch has spent waiting on interrupts, or bad addresses, or out of MSHRs (Cycle)
system.cpu0.fetch.pendingTrapStallCycles         7198                       # Number of stall cycles due to pending traps (Cycle)
system.cpu0.fetch.icacheWaitRetryStallCycles           80                       # Number of stall cycles due to full MSHR (Cycle)
system.cpu0.fetch.cacheLines                 14854176                       # Number of cache lines fetched (Count)
system.cpu0.fetch.icacheSquashes                 3351                       # Number of outstanding Icache misses that were squashed (Count)
system.cpu0.fetch.nisnDist::samples         584836155                       # Number of instructions fetched each cycle (Total) (Count)
system.cpu0.fetch.nisnDist::mean             0.424417                       # Number of instructions fetched each cycle (Total) (Count)
system.cpu0.fetch.nisnDist::stdev            1.692392                       # Number of instructions fetched each cycle (Total) (Count)
system.cpu0.fetch.nisnDist::underflows              0      0.00%      0.00% # Number of instructions fetched each cycle (Total) (Count)
system.cpu0.fetch.nisnDist::0               546650900     93.47%     93.47% # Number of instructions fetched each cycle (Total) (Count)
system.cpu0.fetch.nisnDist::1                  727606      0.12%     93.60% # Number of instructions fetched each cycle (Total) (Count)
system.cpu0.fetch.nisnDist::2                 2686751      0.46%     94.05% # Number of instructions fetched each cycle (Total) (Count)
system.cpu0.fetch.nisnDist::3                 2265632      0.39%     94.44% # Number of instructions fetched each cycle (Total) (Count)
system.cpu0.fetch.nisnDist::4                 1818830      0.31%     94.75% # Number of instructions fetched each cycle (Total) (Count)
system.cpu0.fetch.nisnDist::5                 1111976      0.19%     94.94% # Number of instructions fetched each cycle (Total) (Count)
system.cpu0.fetch.nisnDist::6                 5308369      0.91%     95.85% # Number of instructions fetched each cycle (Total) (Count)
system.cpu0.fetch.nisnDist::7                 3497944      0.60%     96.45% # Number of instructions fetched each cycle (Total) (Count)
system.cpu0.fetch.nisnDist::8                20768147      3.55%    100.00% # Number of instructions fetched each cycle (Total) (Count)
system.cpu0.fetch.nisnDist::overflows               0      0.00%    100.00% # Number of instructions fetched each cycle (Total) (Count)
system.cpu0.fetch.nisnDist::min_value               0                       # Number of instructions fetched each cycle (Total) (Count)
system.cpu0.fetch.nisnDist::max_value               8                       # Number of instructions fetched each cycle (Total) (Count)
system.cpu0.fetch.nisnDist::total           584836155                       # Number of instructions fetched each cycle (Total) (Count)
system.cpu0.fetch.branchRate                 0.018234                       # Number of branch fetches per cycle (Ratio)
system.cpu0.fetch.rate                       0.196526                       # Number of inst fetches per cycle ((Count/Cycle))
system.cpu0.icache.demandHits::cpu0.inst     14850754                       # number of demand (read+write) hits (Count)
system.cpu0.icache.demandHits::total         14850754                       # number of demand (read+write) hits (Count)
system.cpu0.icache.overallHits::cpu0.inst     14850754                       # number of overall hits (Count)
system.cpu0.icache.overallHits::total        14850754                       # number of overall hits (Count)
system.cpu0.icache.demandMisses::cpu0.inst         3422                       # number of demand (read+write) misses (Count)
system.cpu0.icache.demandMisses::total           3422                       # number of demand (read+write) misses (Count)
system.cpu0.icache.overallMisses::cpu0.inst         3422                       # number of overall misses (Count)
system.cpu0.icache.overallMisses::total          3422                       # number of overall misses (Count)
system.cpu0.icache.demandMissLatency::cpu0.inst    234989999                       # number of demand (read+write) miss ticks (Tick)
system.cpu0.icache.demandMissLatency::total    234989999                       # number of demand (read+write) miss ticks (Tick)
system.cpu0.icache.overallMissLatency::cpu0.inst    234989999                       # number of overall miss ticks (Tick)
system.cpu0.icache.overallMissLatency::total    234989999                       # number of overall miss ticks (Tick)
system.cpu0.icache.demandAccesses::cpu0.inst     14854176                       # number of demand (read+write) accesses (Count)
system.cpu0.icache.demandAccesses::total     14854176                       # number of demand (read+write) accesses (Count)
system.cpu0.icache.overallAccesses::cpu0.inst     14854176                       # number of overall (read+write) accesses (Count)
system.cpu0.icache.overallAccesses::total     14854176                       # number of overall (read+write) accesses (Count)
system.cpu0.icache.demandMissRate::cpu0.inst     0.000230                       # miss rate for demand accesses (Ratio)
system.cpu0.icache.demandMissRate::total     0.000230                       # miss rate for demand accesses (Ratio)
system.cpu0.icache.overallMissRate::cpu0.inst     0.000230                       # miss rate for overall accesses (Ratio)
system.cpu0.icache.overallMissRate::total     0.000230                       # miss rate for overall accesses (Ratio)
system.cpu0.icache.demandAvgMissLatency::cpu0.inst 68670.367914                       # average overall miss latency in ticks ((Tick/Count))
system.cpu0.icache.demandAvgMissLatency::total 68670.367914                       # average overall miss latency in ticks ((Tick/Count))
system.cpu0.icache.overallAvgMissLatency::cpu0.inst 68670.367914                       # average overall miss latency ((Tick/Count))
system.cpu0.icache.overallAvgMissLatency::total 68670.367914                       # average overall miss latency ((Tick/Count))
system.cpu0.icache.blockedCycles::no_mshrs         1110                       # number of cycles access was blocked (Cycle)
system.cpu0.icache.blockedCycles::no_targets            0                       # number of cycles access was blocked (Cycle)
system.cpu0.icache.blockedCauses::no_mshrs           16                       # number of times access was blocked (Count)
system.cpu0.icache.blockedCauses::no_targets            0                       # number of times access was blocked (Count)
system.cpu0.icache.avgBlocked::no_mshrs     69.375000                       # average number of cycles each access was blocked ((Cycle/Count))
system.cpu0.icache.avgBlocked::no_targets          nan                       # average number of cycles each access was blocked ((Cycle/Count))
system.cpu0.icache.writebacks::writebacks         2167                       # number of writebacks (Count)
system.cpu0.icache.writebacks::total             2167                       # number of writebacks (Count)
system.cpu0.icache.demandMshrHits::cpu0.inst          737                       # number of demand (read+write) MSHR hits (Count)
system.cpu0.icache.demandMshrHits::total          737                       # number of demand (read+write) MSHR hits (Count)
system.cpu0.icache.overallMshrHits::cpu0.inst          737                       # number of overall MSHR hits (Count)
system.cpu0.icache.overallMshrHits::total          737                       # number of overall MSHR hits (Count)
system.cpu0.icache.demandMshrMisses::cpu0.inst         2685                       # number of demand (read+write) MSHR misses (Count)
system.cpu0.icache.demandMshrMisses::total         2685                       # number of demand (read+write) MSHR misses (Count)
system.cpu0.icache.overallMshrMisses::cpu0.inst         2685                       # number of overall MSHR misses (Count)
system.cpu0.icache.overallMshrMisses::total         2685                       # number of overall MSHR misses (Count)
system.cpu0.icache.demandMshrMissLatency::cpu0.inst    185892500                       # number of demand (read+write) MSHR miss ticks (Tick)
system.cpu0.icache.demandMshrMissLatency::total    185892500                       # number of demand (read+write) MSHR miss ticks (Tick)
system.cpu0.icache.overallMshrMissLatency::cpu0.inst    185892500                       # number of overall MSHR miss ticks (Tick)
system.cpu0.icache.overallMshrMissLatency::total    185892500                       # number of overall MSHR miss ticks (Tick)
system.cpu0.icache.demandMshrMissRate::cpu0.inst     0.000181                       # mshr miss ratio for demand accesses (Ratio)
system.cpu0.icache.demandMshrMissRate::total     0.000181                       # mshr miss ratio for demand accesses (Ratio)
system.cpu0.icache.overallMshrMissRate::cpu0.inst     0.000181                       # mshr miss ratio for overall accesses (Ratio)
system.cpu0.icache.overallMshrMissRate::total     0.000181                       # mshr miss ratio for overall accesses (Ratio)
system.cpu0.icache.demandAvgMshrMissLatency::cpu0.inst 69233.705773                       # average overall mshr miss latency ((Tick/Count))
system.cpu0.icache.demandAvgMshrMissLatency::total 69233.705773                       # average overall mshr miss latency ((Tick/Count))
system.cpu0.icache.overallAvgMshrMissLatency::cpu0.inst 69233.705773                       # average overall mshr miss latency ((Tick/Count))
system.cpu0.icache.overallAvgMshrMissLatency::total 69233.705773                       # average overall mshr miss latency ((Tick/Count))
system.cpu0.icache.replacements                  2167                       # number of replacements (Count)
system.cpu0.icache.ReadReq.hits::cpu0.inst     14850754                       # number of ReadReq hits (Count)
system.cpu0.icache.ReadReq.hits::total       14850754                       # number of ReadReq hits (Count)
system.cpu0.icache.ReadReq.misses::cpu0.inst         3422                       # number of ReadReq misses (Count)
system.cpu0.icache.ReadReq.misses::total         3422                       # number of ReadReq misses (Count)
system.cpu0.icache.ReadReq.missLatency::cpu0.inst    234989999                       # number of ReadReq miss ticks (Tick)
system.cpu0.icache.ReadReq.missLatency::total    234989999                       # number of ReadReq miss ticks (Tick)
system.cpu0.icache.ReadReq.accesses::cpu0.inst     14854176                       # number of ReadReq accesses(hits+misses) (Count)
system.cpu0.icache.ReadReq.accesses::total     14854176                       # number of ReadReq accesses(hits+misses) (Count)
system.cpu0.icache.ReadReq.missRate::cpu0.inst     0.000230                       # miss rate for ReadReq accesses (Ratio)
system.cpu0.icache.ReadReq.missRate::total     0.000230                       # miss rate for ReadReq accesses (Ratio)
system.cpu0.icache.ReadReq.avgMissLatency::cpu0.inst 68670.367914                       # average ReadReq miss latency ((Tick/Count))
system.cpu0.icache.ReadReq.avgMissLatency::total 68670.367914                       # average ReadReq miss latency ((Tick/Count))
system.cpu0.icache.ReadReq.mshrHits::cpu0.inst          737                       # number of ReadReq MSHR hits (Count)
system.cpu0.icache.ReadReq.mshrHits::total          737                       # number of ReadReq MSHR hits (Count)
system.cpu0.icache.ReadReq.mshrMisses::cpu0.inst         2685                       # number of ReadReq MSHR misses (Count)
system.cpu0.icache.ReadReq.mshrMisses::total         2685                       # number of ReadReq MSHR misses (Count)
system.cpu0.icache.ReadReq.mshrMissLatency::cpu0.inst    185892500                       # number of ReadReq MSHR miss ticks (Tick)
system.cpu0.icache.ReadReq.mshrMissLatency::total    185892500                       # number of ReadReq MSHR miss ticks (Tick)
system.cpu0.icache.ReadReq.mshrMissRate::cpu0.inst     0.000181                       # mshr miss rate for ReadReq accesses (Ratio)
system.cpu0.icache.ReadReq.mshrMissRate::total     0.000181                       # mshr miss rate for ReadReq accesses (Ratio)
system.cpu0.icache.ReadReq.avgMshrMissLatency::cpu0.inst 69233.705773                       # average ReadReq mshr miss latency ((Tick/Count))
system.cpu0.icache.ReadReq.avgMshrMissLatency::total 69233.705773                       # average ReadReq mshr miss latency ((Tick/Count))
system.cpu0.icache.power_state.pwrStateResidencyTicks::UNDEFINED 146313507750                       # Cumulative time (in ticks) in various power states (Tick)
system.cpu0.icache.tags.tagsInUse          509.376914                       # Average ticks per tags in use ((Tick/Count))
system.cpu0.icache.tags.totalRefs            14853438                       # Total number of references to valid blocks. (Count)
system.cpu0.icache.tags.sampledRefs              2684                       # Sample count of references to valid blocks. (Count)
system.cpu0.icache.tags.avgRefs           5534.067809                       # Average number of references to valid blocks. ((Count/Count))
system.cpu0.icache.tags.warmupTick              85250                       # The tick when the warmup percentage was hit. (Tick)
system.cpu0.icache.tags.occupancies::cpu0.inst   509.376914                       # Average occupied blocks per tick, per requestor ((Count/Tick))
system.cpu0.icache.tags.avgOccs::cpu0.inst     0.994877                       # Average percentage of cache occupancy ((Ratio/Tick))
system.cpu0.icache.tags.avgOccs::total       0.994877                       # Average percentage of cache occupancy ((Ratio/Tick))
system.cpu0.icache.tags.occupanciesTaskId::1024          512                       # Occupied blocks per task id (Count)
system.cpu0.icache.tags.ageTaskId_1024::0           96                       # Occupied blocks per task id, per block age (Count)
system.cpu0.icache.tags.ageTaskId_1024::1           78                       # Occupied blocks per task id, per block age (Count)
system.cpu0.icache.tags.ageTaskId_1024::4          338                       # Occupied blocks per task id, per block age (Count)
system.cpu0.icache.tags.ratioOccsTaskId::1024            1                       # Ratio of occupied blocks and all blocks, per task id (Ratio)
system.cpu0.icache.tags.tagAccesses          29711036                       # Number of tag accesses (Count)
system.cpu0.icache.tags.dataAccesses         29711036                       # Number of data accesses (Count)
system.cpu0.icache.tags.power_state.pwrStateResidencyTicks::UNDEFINED 146313507750                       # Cumulative time (in ticks) in various power states (Tick)
system.cpu0.iew.idleCycles                          0                       # Number of cycles IEW is idle (Cycle)
system.cpu0.iew.squashCycles                  1011491                       # Number of cycles IEW is squashing (Cycle)
system.cpu0.iew.blockCycles                  45853860                       # Number of cycles IEW is blocking (Cycle)
system.cpu0.iew.unblockCycles                46454472                       # Number of cycles IEW is unblocking (Cycle)
system.cpu0.iew.dispatchedInsts             198005464                       # Number of instructions dispatched to IQ (Count)
system.cpu0.iew.dispSquashedInsts                1076                       # Number of squashed instructions skipped by dispatch (Count)
system.cpu0.iew.dispLoadInsts                44227681                       # Number of dispatched load instructions (Count)
system.cpu0.iew.dispStoreInsts               43065986                       # Number of dispatched store instructions (Count)
system.cpu0.iew.dispNonSpecInsts                  527                       # Number of dispatched non-speculative instructions (Count)
system.cpu0.iew.iqFullEvents                     2218                       # Number of times the IQ has become full, causing a stall (Count)
system.cpu0.iew.lsqFullEvents                46536354                       # Number of times the LSQ has become full, causing a stall (Count)
system.cpu0.iew.memOrderViolationEvents           362                       # Number of memory order violations (Count)
system.cpu0.iew.predictedTakenIncorrect          2761                       # Number of branches that were predicted taken incorrectly (Count)
system.cpu0.iew.predictedNotTakenIncorrect         7310                       # Number of branches that were predicted not taken incorrectly (Count)
system.cpu0.iew.branchMispredicts               10071                       # Number of branch mispredicts detected at execute (Count)
system.cpu0.iew.instsToCommit               197843702                       # Cumulative count of insts sent to commit (Count)
[...]
system.mem_ctrls.dram.perBankWrBursts::7       312930                       # Per bank write bursts (Count)
system.mem_ctrls.dram.perBankWrBursts::8       312653                       # Per bank write bursts (Count)
system.mem_ctrls.dram.perBankWrBursts::9       312522                       # Per bank write bursts (Count)
system.mem_ctrls.dram.perBankWrBursts::10       312540                       # Per bank write bursts (Count)
system.mem_ctrls.dram.perBankWrBursts::11       312504                       # Per bank write bursts (Count)
system.mem_ctrls.dram.perBankWrBursts::12       312726                       # Per bank write bursts (Count)
system.mem_ctrls.dram.perBankWrBursts::13       313068                       # Per bank write bursts (Count)
system.mem_ctrls.dram.perBankWrBursts::14       313014                       # Per bank write bursts (Count)
system.mem_ctrls.dram.perBankWrBursts::15       312664                       # Per bank write bursts (Count)
system.mem_ctrls.dram.totQLat            402178828500                       # Total ticks spent queuing (Tick)
system.mem_ctrls.dram.totBusLat           23526610000                       # Total ticks spent in databus transfers (Tick)
system.mem_ctrls.dram.totMemAccLat       637444928500                       # Total ticks spent from burst creation until serviced by the DRAM (Tick)
system.mem_ctrls.dram.avgQLat                34189.27                       # Average queueing delay per DRAM burst ((Tick/Count))
system.mem_ctrls.dram.avgBusLat               2000.00                       # Average bus latency per DRAM burst ((Tick/Count))
system.mem_ctrls.dram.avgMemAccLat           54189.27                       # Average memory access latency per DRAM burst ((Tick/Count))
system.mem_ctrls.dram.readRowHits             5891351                       # Number of row buffer hits during reads (Count)
system.mem_ctrls.dram.writeRowHits            4300139                       # Number of row buffer hits during writes (Count)
system.mem_ctrls.dram.readRowHitRate            50.08                       # Row buffer hit rate for reads (Ratio)
system.mem_ctrls.dram.writeRowHitRate           85.95                       # Row buffer hit rate for writes (Ratio)
system.mem_ctrls.dram.bytesPerActivate::samples      6574776                       # Bytes accessed per row activation (Byte)
system.mem_ctrls.dram.bytesPerActivate::mean    81.602858                       # Bytes accessed per row activation (Byte)
system.mem_ctrls.dram.bytesPerActivate::gmean    71.788369                       # Bytes accessed per row activation (Byte)
system.mem_ctrls.dram.bytesPerActivate::stdev    65.167345                       # Bytes accessed per row activation (Byte)
system.mem_ctrls.dram.bytesPerActivate::0-63        54045      0.82%      0.82% # Bytes accessed per row activation (Byte)
system.mem_ctrls.dram.bytesPerActivate::64-127      5946989     90.45%     91.27% # Bytes accessed per row activation (Byte)
system.mem_ctrls.dram.bytesPerActivate::128-191        99962      1.52%     92.79% # Bytes accessed per row activation (Byte)
system.mem_ctrls.dram.bytesPerActivate::192-255       139846      2.13%     94.92% # Bytes accessed per row activation (Byte)
system.mem_ctrls.dram.bytesPerActivate::256-319       202954      3.09%     98.01% # Bytes accessed per row activation (Byte)
system.mem_ctrls.dram.bytesPerActivate::320-383        49362      0.75%     98.76% # Bytes accessed per row activation (Byte)
system.mem_ctrls.dram.bytesPerActivate::384-447        13817      0.21%     98.97% # Bytes accessed per row activation (Byte)
system.mem_ctrls.dram.bytesPerActivate::448-511        19856      0.30%     99.27% # Bytes accessed per row activation (Byte)
system.mem_ctrls.dram.bytesPerActivate::512-575        47945      0.73%    100.00% # Bytes accessed per row activation (Byte)
system.mem_ctrls.dram.bytesPerActivate::total      6574776                       # Bytes accessed per row activation (Byte)
system.mem_ctrls.dram.bytesRead             376425760                       # Total bytes read (Byte)
system.mem_ctrls.dram.bytesWritten          160094752                       # Total bytes written (Byte)
system.mem_ctrls.dram.avgRdBW             2572.734164                       # Average DRAM read bandwidth in MiBytes/s ((Byte/Second))
system.mem_ctrls.dram.avgWrBW             1094.189829                       # Average DRAM write bandwidth in MiBytes/s ((Byte/Second))
system.mem_ctrls.dram.peakBW                 16000.00                       # Theoretical peak bandwidth in MiByte/s ((Byte/Second))
system.mem_ctrls.dram.busUtil                   22.92                       # Data bus utilization in percentage (Ratio)
system.mem_ctrls.dram.busUtilRead               16.08                       # Data bus utilization in percentage for reads (Ratio)
system.mem_ctrls.dram.busUtilWrite               6.84                       # Data bus utilization in percentage for writes (Ratio)
system.mem_ctrls.dram.pageHitRate               60.79                       # Row buffer hit rate, read and write combined (Ratio)
system.mem_ctrls.dram.power_state.pwrStateResidencyTicks::UNDEFINED 146313507750                       # Cumulative time (in ticks) in various power states (Tick)
system.mem_ctrls.dram.rank0.actEnergy               0                       # Energy for activate commands per rank (pJ) (Joule)
system.mem_ctrls.dram.rank0.preEnergy               0                       # Energy for precharge commands per rank (pJ) (Joule)
system.mem_ctrls.dram.rank0.readEnergy              0                       # Energy for read commands per rank (pJ) (Joule)
system.mem_ctrls.dram.rank0.writeEnergy             0                       # Energy for write commands per rank (pJ) (Joule)
system.mem_ctrls.dram.rank0.refreshEnergy            0                       # Energy for refresh commands per rank (pJ) (Joule)
system.mem_ctrls.dram.rank0.actBackEnergy            0                       # Energy for active background per rank (pJ) (Joule)
system.mem_ctrls.dram.rank0.preBackEnergy            0                       # Energy for precharge background per rank (pJ) (Joule)
system.mem_ctrls.dram.rank0.actPowerDownEnergy            0                       # Energy for active power-down per rank (pJ) (Joule)
system.mem_ctrls.dram.rank0.prePowerDownEnergy            0                       # Energy for precharge power-down per rank (pJ) (Joule)
system.mem_ctrls.dram.rank0.selfRefreshEnergy            0                       # Energy for self refresh per rank (pJ) (Joule)
system.mem_ctrls.dram.rank0.totalEnergy             0                       # Total energy per rank (pJ) (Joule)
system.mem_ctrls.dram.rank0.averagePower            0                       # Core power per rank (mW) (Watt)
system.mem_ctrls.dram.rank0.totalIdleTime            0                       # Total Idle time Per DRAM Rank (Tick)
system.mem_ctrls.dram.rank0.pwrStateTime::IDLE  18569569500                       # Time in different power states (Tick)
system.mem_ctrls.dram.rank0.pwrStateTime::REF   8283220000                       # Time in different power states (Tick)
system.mem_ctrls.dram.rank0.pwrStateTime::SREF            0                       # Time in different power states (Tick)
system.mem_ctrls.dram.rank0.pwrStateTime::PRE_PDN            0                       # Time in different power states (Tick)
system.mem_ctrls.dram.rank0.pwrStateTime::ACT 119460718250                       # Time in different power states (Tick)
system.mem_ctrls.dram.rank0.pwrStateTime::ACT_PDN            0                       # Time in different power states (Tick)
system.mem_ctrls.power_state.pwrStateResidencyTicks::UNDEFINED 146313507750                       # Cumulative time (in ticks) in various power states (Tick)
system.membus.transDist::ReadResp             3505457                       # Transaction distribution (Count)
system.membus.transDist::WritebackDirty       2501491                       # Transaction distribution (Count)
system.membus.transDist::CleanEvict           3345916                       # Transaction distribution (Count)
system.membus.transDist::UpgradeReq                44                       # Transaction distribution (Count)
system.membus.transDist::ReadExReq            2376203                       # Transaction distribution (Count)
system.membus.transDist::ReadExResp           2376203                       # Transaction distribution (Count)
system.membus.transDist::ReadSharedReq        3505457                       # Transaction distribution (Count)
system.membus.pktCount_system.l2.mem_side_port::system.mem_ctrls.port     17610771                       # Packet count per connected requestor and responder (Count)
system.membus.pktCount_system.l2.mem_side_port::total     17610771                       # Packet count per connected requestor and responder (Count)
system.membus.pktCount::total                17610771                       # Packet count per connected requestor and responder (Count)
system.membus.pktSize_system.l2.mem_side_port::system.mem_ctrls.port    536521664                       # Cumulative packet size per connected requestor and responder (Byte)
system.membus.pktSize_system.l2.mem_side_port::total    536521664                       # Cumulative packet size per connected requestor and responder (Byte)
system.membus.pktSize::total                536521664                       # Cumulative packet size per connected requestor and responder (Byte)
system.membus.snoops                               44                       # Total snoops (Count)
system.membus.snoopTraffic                          0                       # Total snoop traffic (Byte)
system.membus.snoopFanout::samples            5881704                       # Request fanout histogram (Count)
system.membus.snoopFanout::mean                     0                       # Request fanout histogram (Count)
system.membus.snoopFanout::stdev                    0                       # Request fanout histogram (Count)
system.membus.snoopFanout::underflows               0      0.00%      0.00% # Request fanout histogram (Count)
system.membus.snoopFanout::0                  5881704    100.00%    100.00% # Request fanout histogram (Count)
system.membus.snoopFanout::1                        0      0.00%    100.00% # Request fanout histogram (Count)
system.membus.snoopFanout::overflows                0      0.00%    100.00% # Request fanout histogram (Count)
system.membus.snoopFanout::min_value                0                       # Request fanout histogram (Count)
system.membus.snoopFanout::max_value                0                       # Request fanout histogram (Count)
system.membus.snoopFanout::total              5881704                       # Request fanout histogram (Count)
system.membus.power_state.pwrStateResidencyTicks::UNDEFINED 146313507750                       # Cumulative time (in ticks) in various power states (Tick)
system.membus.reqLayer4.occupancy         22499819000                       # Layer occupancy (ticks) (Tick)
system.membus.reqLayer4.utilization               0.2                       # Layer utilization (Ratio)
system.membus.respLayer1.occupancy        30129952000                       # Layer occupancy (ticks) (Tick)
system.membus.respLayer1.utilization              0.2                       # Layer utilization (Ratio)
system.membus.snoop_filter.totRequests       11729111                       # Total number of requests made to the snoop filter. (Count)
system.membus.snoop_filter.hitSingleRequests      5848377                       # Number of requests hitting in the snoop filter with a single holder of the requested data. (Count)
system.membus.snoop_filter.hitMultiRequests            0                       # Number of requests hitting in the snoop filter with multiple (>1) holders of the requested data. (Count)
system.membus.snoop_filter.totSnoops                0                       # Total number of snoops made to the snoop filter. (Count)
system.membus.snoop_filter.hitSingleSnoops            0                       # Number of snoops hitting in the snoop filter with a single holder of the requested data. (Count)
system.membus.snoop_filter.hitMultiSnoops            0                       # Number of snoops hitting in the snoop filter with multiple (>1) holders of the requested data. (Count)
system.tol2bus.transDist::ReadResp            3507566                       # Transaction distribution (Count)
system.tol2bus.transDist::WritebackDirty      5003532                       # Transaction distribution (Count)
system.tol2bus.transDist::WritebackClean         2171                       # Transaction distribution (Count)
system.tol2bus.transDist::CleanEvict          6724564                       # Transaction distribution (Count)
system.tol2bus.transDist::UpgradeReq              109                       # Transaction distribution (Count)
system.tol2bus.transDist::UpgradeResp             109                       # Transaction distribution (Count)
system.tol2bus.transDist::ReadExReq           2376421                       # Transaction distribution (Count)
system.tol2bus.transDist::ReadExResp          2376421                       # Transaction distribution (Count)
system.tol2bus.transDist::ReadCleanReq           2829                       # Transaction distribution (Count)
system.tol2bus.transDist::ReadSharedReq       3504738                       # Transaction distribution (Count)
system.tol2bus.pktCount_system.cpu0.icache.mem_side_port::system.l2.cpu_side_port         7533                       # Packet count per connected requestor and responder (Count)
system.tol2bus.pktCount_system.cpu0.dcache.mem_side_port::system.l2.cpu_side_port      9390644                       # Packet count per connected requestor and responder (Count)
system.tol2bus.pktCount_system.cpu1.icache.mem_side_port::system.l2.cpu_side_port          287                       # Packet count per connected requestor and responder (Count)
system.tol2bus.pktCount_system.cpu1.dcache.mem_side_port::system.l2.cpu_side_port      8250324                       # Packet count per connected requestor and responder (Count)
system.tol2bus.pktCount::total               17648788                       # Packet count per connected requestor and responder (Count)
system.tol2bus.pktSize_system.cpu0.icache.mem_side_port::system.l2.cpu_side_port       310272                       # Cumulative packet size per connected requestor and responder (Byte)
system.tol2bus.pktSize_system.cpu0.dcache.mem_side_port::system.l2.cpu_side_port    280478720                       # Cumulative packet size per connected requestor and responder (Byte)
system.tol2bus.pktSize_system.cpu1.icache.mem_side_port::system.l2.cpu_side_port         9152                       # Cumulative packet size per connected requestor and responder (Byte)
system.tol2bus.pktSize_system.cpu1.dcache.mem_side_port::system.l2.cpu_side_port    256018944                       # Cumulative packet size per connected requestor and responder (Byte)
system.tol2bus.pktSize::total               536817088                       # Cumulative packet size per connected requestor and responder (Byte)
system.tol2bus.snoops                         5849672                       # Total snoops (Count)
system.tol2bus.snoopTraffic                 160123072                       # Total snoop traffic (Byte)
system.tol2bus.snoopFanout::samples          11733293                       # Request fanout histogram (Count)
system.tol2bus.snoopFanout::mean             0.000345                       # Request fanout histogram (Count)
system.tol2bus.snoopFanout::stdev            0.019112                       # Request fanout histogram (Count)
system.tol2bus.snoopFanout::underflows              0      0.00%      0.00% # Request fanout histogram (Count)
system.tol2bus.snoopFanout::0                11729369     99.97%     99.97% # Request fanout histogram (Count)
system.tol2bus.snoopFanout::1                    3803      0.03%    100.00% # Request fanout histogram (Count)
system.tol2bus.snoopFanout::2                     121      0.00%    100.00% # Request fanout histogram (Count)
system.tol2bus.snoopFanout::3                       0      0.00%    100.00% # Request fanout histogram (Count)
system.tol2bus.snoopFanout::4                       0      0.00%    100.00% # Request fanout histogram (Count)
system.tol2bus.snoopFanout::5                       0      0.00%    100.00% # Request fanout histogram (Count)
system.tol2bus.snoopFanout::6                       0      0.00%    100.00% # Request fanout histogram (Count)
system.tol2bus.snoopFanout::7                       0      0.00%    100.00% # Request fanout histogram (Count)
system.tol2bus.snoopFanout::8                       0      0.00%    100.00% # Request fanout histogram (Count)
system.tol2bus.snoopFanout::overflows               0      0.00%    100.00% # Request fanout histogram (Count)
system.tol2bus.snoopFanout::min_value               0                       # Request fanout histogram (Count)
system.tol2bus.snoopFanout::max_value               2                       # Request fanout histogram (Count)
system.tol2bus.snoopFanout::total            11733293                       # Request fanout histogram (Count)
system.tol2bus.power_state.pwrStateResidencyTicks::UNDEFINED 146313507750                       # Cumulative time (in ticks) in various power states (Tick)
system.tol2bus.reqLayer0.occupancy         4193398498                       # Layer occupancy (ticks) (Tick)
system.tol2bus.reqLayer0.utilization              0.0                       # Layer utilization (Ratio)
system.tol2bus.respLayer0.occupancy           2014992                       # Layer occupancy (ticks) (Tick)
system.tol2bus.respLayer0.utilization             0.0                       # Layer utilization (Ratio)
system.tol2bus.respLayer1.occupancy        2347973747                       # Layer occupancy (ticks) (Tick)
system.tol2bus.respLayer1.utilization             0.0                       # Layer utilization (Ratio)
system.tol2bus.respLayer4.occupancy            110988                       # Layer occupancy (ticks) (Tick)
system.tol2bus.respLayer4.utilization             0.0                       # Layer utilization (Ratio)
system.tol2bus.respLayer5.occupancy        2062924249                       # Layer occupancy (ticks) (Tick)
system.tol2bus.respLayer5.utilization             0.0                       # Layer utilization (Ratio)
system.tol2bus.snoop_filter.totRequests      11765168                       # Total number of requests made to the snoop filter. (Count)
system.tol2bus.snoop_filter.hitSingleRequests      5882032                       # Number of requests hitting in the snoop filter with a single holder of the requested data. (Count)
system.tol2bus.snoop_filter.hitMultiRequests         1026                       # Number of requests hitting in the snoop filter with multiple (>1) holders of the requested data. (Count)
system.tol2bus.snoop_filter.totSnoops            1979                       # Total number of snoops made to the snoop filter. (Count)
system.tol2bus.snoop_filter.hitSingleSnoops         1872                       # Number of snoops hitting in the snoop filter with a single holder of the requested data. (Count)
system.tol2bus.snoop_filter.hitMultiSnoops          107                       # Number of snoops hitting in the snoop filter with multiple (>1) holders of the requested data. (Count)
system.voltage_domain.voltage                       1                       # Voltage in Volts (Volt)
system.workload.inst.arm                            0                       # number of arm instructions executed (Count)
system.workload.inst.quiesce                        0                       # number of quiesce instructions executed (Count)

---------- End Simulation Statistics   ----------
