
---------- Begin Simulation Statistics ----------
simSeconds                                   0.145611                       # Number of seconds simulated (Second)
simTicks                                 145611339250                       # Number of ticks simulated (Tick)
finalTick                                145611339250                       # Number of ticks from beginning of simulation (restored from checkpoints and never reset) (Tick)
simFreq                                  1000000000000                       # The number of ticks per simulated second ((Tick/Second))
hostSeconds                                   1878.88                       # Real time elapsed on the host (Second)
hostTickRate                                 77498936                       # The number of ticks simulated per host second (ticks/s) ((Tick/Second))
hostMemory                                    7712668                       # Number of bytes of host memory used (Byte)
simInsts                                     95766264                       # Number of instructions simulated (Count)
simOps                                      173076634                       # Number of ops (including micro ops) simulated (Count)
hostInstRate                                    50970                       # Simulator instruction rate (inst/s) ((Count/Second))
hostOpRate                                      92117                       # Simulator op (including micro ops) rate (op/s) ((Count/Second))
system.clk_domain.clock                          1000                       # Clock period in ticks (Tick)
system.cpu0.numCycles                       582445358                       # Number of cpu cycles simulated (Cycle)
system.cpu0.numWorkItemsStarted                     0                       # Number of work items this cpu started (Count)
system.cpu0.numWorkItemsCompleted                   0                       # Number of work items this cpu completed (Count)
system.cpu0.instsAdded                      198258778                       # Number of instructions added to the IQ (excludes non-spec) (Count)
system.cpu0.nonSpecInstsAdded                    1233                       # Number of non-speculative instructions added to the IQ (Count)
system.cpu0.instsIssued                     198390344                       # Number of instructions issued (Count)
system.cpu0.squashedInstsIssued                  3426                       # Number of squashed instructions issued (Count)
system.cpu0.squashedInstsExamined            96077931                       # Number of squashed instructions iterated over during squash; mainly for profiling (Count)
system.cpu0.squashedOperandsExamined           697279                       # Number of squashed operands that are examined and possibly removed from graph (Count)
system.cpu0.squashedNonSpecRemoved                473                       # Number of squashed non-spec instructions that were removed (Count)
system.cpu0.numIssuedDist::samples          582011392                       # Number of insts issued each cycle (Count)
system.cpu0.numIssuedDist::mean              0.340870                       # Number of insts issued each cycle (Count)
system.cpu0.numIssuedDist::stdev             1.267252                       # Number of insts issued each cycle (Count)
system.cpu0.numIssuedDist::underflows               0      0.00%      0.00% # Number of insts issued each cycle (Count)
system.cpu0.numIssuedDist::0                525659882     90.32%     90.32% # Number of insts issued each cycle (Count)
system.cpu0.numIssuedDist::1                 15010776      2.58%     92.90% # Number of insts issued each cycle (Count)
system.cpu0.numIssuedDist::2                 10258299      1.76%     94.66% # Number of insts issued each cycle (Count)
system.cpu0.numIssuedDist::3                  5301419      0.91%     95.57% # Number of insts issued each cycle (Count)
system.cpu0.numIssuedDist::4                  7423627      1.28%     96.85% # Number of insts issued each cycle (Count)
system.cpu0.numIssuedDist::5                  7145823      1.23%     98.07% # Number of insts issued each cycle (Count)
system.cpu0.numIssuedDist::6                  2967329      0.51%     98.58% # Number of insts issued each cycle (Count)
system.cpu0.numIssuedDist::7                  2222780      0.38%     98.97% # Number of insts issued each cycle (Count)
system.cpu0.numIssuedDist::8                  6021457      1.03%    100.00% # Number of insts issued each cycle (Count)
system.cpu0.numIssuedDist::overflows                0      0.00%    100.00% # Number of insts issued each cycle (Count)
system.cpu0.numIssuedDist::min_value                0                       # Number of insts issued each cycle (Count)
system.cpu0.numIssuedDist::max_value                8                       # Number of insts issued each cycle (Count)
system.cpu0.numIssuedDist::total            582011392                       # Number of insts issued each cycle (Count)
system.cpu0.statFuBusy::No_OpClass                  0      0.00%      0.00% # attempts to use FU when none available (Count)
system.cpu0.statFuBusy::IntAlu                 124242      1.06%      1.06% # attempts to use FU when none available (Count)
system.cpu0.statFuBusy::IntMult                     0      0.00%      1.06% # attempts to use FU when none available (Count)
system.cpu0.statFuBusy::IntDiv                      0      0.00%      1.06% # attempts to use FU when none available (Count)
system.cpu0.statFuBusy::FloatAdd                    0      0.00%      1.06% # attempts to use FU when none available (Count)
system.cpu0.statFuBusy::FloatCmp                    0      0.00%      1.06% # attempts to use FU when none available (Count)
system.cpu0.statFuBusy::FloatCvt                    0      0.00%      1.06% # attempts to use FU when none available (Count)
system.cpu0.statFuBusy::FloatMult                   0      0.00%      1.06% # attempts to use FU when none available (Count)
system.cpu0.statFuBusy::FloatMultAcc                0      0.00%      1.06% # attempts to use FU when none available (Count)
system.cpu0.statFuBusy::FloatDiv                    0      0.00%      1.06% # attempts to use FU when none available (Count)
system.cpu0.statFuBusy::FloatMisc                   0      0.00%      1.06% # attempts to use FU when none available (Count)
system.cpu0.statFuBusy::FloatSqrt                   0      0.00%      1.06% # attempts to use FU when none available (Count)
system.cpu0.statFuBusy::SimdAdd                     2      0.00%      1.06% # attempts to use FU when none available (Count)
system.cpu0.statFuBusy::SimdAddAcc                  0      0.00%      1.06% # attempts to use FU when none available (Count)
system.cpu0.statFuBusy::SimdAlu                   128      0.00%      1.06% # attempts to use FU when none available (Count)
system.cpu0.statFuBusy::SimdCmp                     0      0.00%      1.06% # attempts to use FU when none available (Count)
system.cpu0.statFuBusy::SimdCvt                   139      0.00%      1.06% # attempts to use FU when none available (Count)
system.cpu0.statFuBusy::SimdMisc                   53      0.00%      1.06% # attempts to use FU when none available (Count)
system.cpu0.statFuBusy::SimdMult                    0      0.00%      1.06% # attempts to use FU when none available (Count)
system.cpu0.statFuBusy::SimdMultAcc                 0      0.00%      1.06% # attempts to use FU when none available (Count)
system.cpu0.statFuBusy::SimdShift                  27      0.00%      1.06% # attempts to use FU when none available (Count)
system.cpu0.statFuBusy::SimdShiftAcc                0      0.00%      1.06% # attempts to use FU when none available (Count)
system.cpu0.statFuBusy::SimdDiv                     0      0.00%      1.06% # attempts to use FU when none available (Count)
system.cpu0.statFuBusy::SimdSqrt                    0      0.00%      1.06% # attempts to use FU when none available (Count)
system.cpu0.statFuBusy::SimdFloatAdd           868063      7.39%      8.45% # attempts to use FU when none available (Count)
system.cpu0.statFuBusy::SimdFloatAlu                0      0.00%      8.45% # attempts to use FU when none available (Count)
system.cpu0.statFuBusy::SimdFloatCmp                0      0.00%      8.45% # attempts to use FU when none available (Count)
system.cpu0.statFuBusy::SimdFloatCvt                0      0.00%      8.45% # attempts to use FU when none available (Count)
system.cpu0.statFuBusy::SimdFloatDiv                0      0.00%      8.45% # attempts to use FU when none available (Count)
system.cpu0.statFuBusy::SimdFloatMisc               0      0.00%      8.45% # attempts to use FU when none available (Count)
system.cpu0.statFuBusy::SimdFloatMult               0      0.00%      8.45% # attempts to use FU when none available (Count)
system.cpu0.statFuBusy::SimdFloatMultAcc            0      0.00%      8.45% # attempts to use FU when none available (Count)
system.cpu0.statFuBusy::SimdFloatSqrt               0      0.00%      8.45% # attempts to use FU when none available (Count)
system.cpu0.statFuBusy::SimdReduceAdd               0      0.00%      8.45% # attempts to use FU when none available (Count)
system.cpu0.statFuBusy::SimdReduceAlu               0      0.00%      8.45% # attempts to use FU when none available (Count)
system.cpu0.statFuBusy::SimdReduceCmp               0      0.00%      8.45% # attempts to use FU when none available (Count)
system.cpu0.statFuBusy::SimdFloatReduceAdd            0      0.00%      8.45% # attempts to use FU when none available (Count)
system.cpu0.statFuBusy::SimdFloatReduceCmp            0      0.00%      8.45% # attempts to use FU when none available (Count)
system.cpu0.statFuBusy::SimdAes                     0      0.00%      8.45% # attempts to use FU when none available (Count)
system.cpu0.statFuBusy::SimdAesMix                  0      0.00%      8.45% # attempts to use FU when none available (Count)
system.cpu0.statFuBusy::SimdSha1Hash                0      0.00%      8.45% # attempts to use FU when none available (Count)
system.cpu0.statFuBusy::SimdSha1Hash2               0      0.00%      8.45% # attempts to use FU when none available (Count)
system.cpu0.statFuBusy::SimdSha256Hash              0      0.00%      8.45% # attempts to use FU when none available (Count)
system.cpu0.statFuBusy::SimdSha256Hash2             0      0.00%      8.45% # attempts to use FU when none available (Count)
system.cpu0.statFuBusy::SimdShaSigma2               0      0.00%      8.45% # attempts to use FU when none available (Count)
system.cpu0.statFuBusy::SimdShaSigma3               0      0.00%      8.45% # attempts to use FU when none available (Count)
system.cpu0.statFuBusy::SimdPredAlu                 0      0.00%      8.45% # attempts to use FU when none available (Count)
system.cpu0.statFuBusy::MemRead               1001955      8.53%     16.98% # attempts to use FU when none available (Count)
system.cpu0.statFuBusy::MemWrite              3000933     25.54%     42.52% # attempts to use FU when none available (Count)
system.cpu0.statFuBusy::FloatMemRead          5752396     48.96%     91.49% # attempts to use FU when none available (Count)
system.cpu0.statFuBusy::FloatMemWrite         1000189      8.51%    100.00% # attempts to use FU when none available (Count)
system.cpu0.statFuBusy::IprAccess                   0      0.00%    100.00% # attempts to use FU when none available (Count)
system.cpu0.statFuBusy::InstPrefetch                0      0.00%    100.00% # attempts to use FU when none available (Count)
system.cpu0.statIssuedInstType_0::No_OpClass     11025513      5.56%      5.56% # Number of instructions issued per FU type, per thread (Count)
system.cpu0.statIssuedInstType_0::IntAlu     76758417     38.69%     44.25% # Number of instructions issued per FU type, per thread (Count)
system.cpu0.statIssuedInstType_0::IntMult          270      0.00%     44.25% # Number of instructions issued per FU type, per thread (Count)
system.cpu0.statIssuedInstType_0::IntDiv         3087      0.00%     44.25% # Number of instructions issued per FU type, per thread (Count)
system.cpu0.statIssuedInstType_0::FloatAdd      5506136      2.78%     47.03% # Number of instructions issued per FU type, per thread (Count)
system.cpu0.statIssuedInstType_0::FloatCmp            0      0.00%     47.03% # Number of instructions issued per FU type, per thread (Count)
system.cpu0.statIssuedInstType_0::FloatCvt          484      0.00%     47.03% # Number of instructions issued per FU type, per thread (Count)
system.cpu0.statIssuedInstType_0::FloatMult            0      0.00%     47.03% # Number of instructions issued per FU type, per thread (Count)
system.cpu0.statIssuedInstType_0::FloatMultAcc            0      0.00%     47.03% # Number of instructions issued per FU type, per thread (Count)
system.cpu0.statIssuedInstType_0::FloatDiv            0      0.00%     47.03% # Number of instructions issued per FU type, per thread (Count)
system.cpu0.statIssuedInstType_0::FloatMisc            0      0.00%     47.03% # Number of instructions issued per FU type, per thread (Count)
system.cpu0.statIssuedInstType_0::FloatSqrt            0      0.00%     47.03% # Number of instructions issued per FU type, per thread (Count)
system.cpu0.statIssuedInstType_0::SimdAdd         1659      0.00%     47.03% # Number of instructions issued per FU type, per thread (Count)
system.cpu0.statIssuedInstType_0::SimdAddAcc            0      0.00%     47.03% # Number of instructions issued per FU type, per thread (Count)
system.cpu0.statIssuedInstType_0::SimdAlu        22556      0.01%     47.04% # Number of instructions issued per FU type, per thread (Count)
system.cpu0.statIssuedInstType_0::SimdCmp           68      0.00%     47.04% # Number of instructions issued per FU type, per thread (Count)
system.cpu0.statIssuedInstType_0::SimdCvt         4831      0.00%     47.04% # Number of instructions issued per FU type, per thread (Count)
system.cpu0.statIssuedInstType_0::SimdMisc         3691      0.00%     47.04% # Number of instructions issued per FU type, per thread (Count)
system.cpu0.statIssuedInstType_0::SimdMult            0      0.00%     47.04% # Number of instructions issued per FU type, per thread (Count)
system.cpu0.statIssuedInstType_0::SimdMultAcc            0      0.00%     47.04% # Number of instructions issued per FU type, per thread (Count)
system.cpu0.statIssuedInstType_0::SimdShift         1373      0.00%     47.04% # Number of instructions issued per FU type, per thread (Count)
system.cpu0.statIssuedInstType_0::SimdShiftAcc            0      0.00%     47.04% # Number of instructions issued per FU type, per thread (Count)
system.cpu0.statIssuedInstType_0::SimdDiv            0      0.00%     47.04% # Number of instructions issued per FU type, per thread (Count)
system.cpu0.statIssuedInstType_0::SimdSqrt            0      0.00%     47.04% # Number of instructions issued per FU type, per thread (Count)
system.cpu0.statIssuedInstType_0::SimdFloatAdd     10508999      5.30%     52.34% # Number of instructions issued per FU type, per thread (Count)
system.cpu0.statIssuedInstType_0::SimdFloatAlu            0      0.00%     52.34% # Number of instructions issued per FU type, per thread (Count)
system.cpu0.statIssuedInstType_0::SimdFloatCmp           24      0.00%     52.34% # Number of instructions issued per FU type, per thread (Count)
system.cpu0.statIssuedInstType_0::SimdFloatCvt      3013514      1.52%     53.86% # Number of instructions issued per FU type, per thread (Count)
system.cpu0.statIssuedInstType_0::SimdFloatDiv           18      0.00%     53.86% # Number of instructions issued per FU type, per thread (Count)
system.cpu0.statIssuedInstType_0::SimdFloatMisc            0      0.00%     53.86% # Number of instructions issued per FU type, per thread (Count)
system.cpu0.statIssuedInstType_0::SimdFloatMult      4004530      2.02%     55.88% # Number of instructions issued per FU type, per thread (Count)
system.cpu0.statIssuedInstType_0::SimdFloatMultAcc            0      0.00%     55.88% # Number of instructions issued per FU type, per thread (Count)
system.cpu0.statIssuedInstType_0::SimdFloatSqrt            0      0.00%     55.88% # Number of instructions issued per FU type, per thread (Count)
system.cpu0.statIssuedInstType_0::SimdReduceAdd            0      0.00%     55.88% # Number of instructions issued per FU type, per thread (Count)
system.cpu0.statIssuedInstType_0::SimdReduceAlu            0      0.00%     55.88% # Number of instructions issued per FU type, per thread (Count)
system.cpu0.statIssuedInstType_0::SimdReduceCmp            0      0.00%     55.88% # Number of instructions issued per FU type, per thread (Count)
system.cpu0.statIssuedInstType_0::SimdFloatReduceAdd            0      0.00%     55.88% # Number of instructions issued per FU type, per thread (Count)
system.cpu0.statIssuedInstType_0::SimdFloatReduceCmp            0      0.00%     55.88% # Number of instructions issued per FU type, per thread (Count)
system.cpu0.statIssuedInstType_0::SimdAes            0      0.00%     55.88% # Number of instructions issued per FU type, per thread (Count)
system.cpu0.statIssuedInstType_0::SimdAesMix            0      0.00%     55.88% # Number of instructions issued per FU type, per thread (Count)
system.cpu0.statIssuedInstType_0::SimdSha1Hash            0      0.00%     55.88% # Number of instructions issued per FU type, per thread (Count)
system.cpu0.statIssuedInstType_0::SimdSha1Hash2            0      0.00%     55.88% # Number of instructions issued per FU type, per thread (Count)
system.cpu0.statIssuedInstType_0::SimdSha256Hash            0      0.00%     55.88% # Number of instructions issued per FU type, per thread (Count)
system.cpu0.statIssuedInstType_0::SimdSha256Hash2            0      0.00%     55.88% # Number of instructions issued per FU type, per thread (Count)
system.cpu0.statIssuedInstType_0::SimdShaSigma2            0      0.00%     55.88% # Number of instructions issued per FU type, per thread (Count)
system.cpu0.statIssuedInstType_0::SimdShaSigma3            0      0.00%     55.88% # Number of instructions issued per FU type, per thread (Count)
system.cpu0.statIssuedInstType_0::SimdPredAlu            0      0.00%     55.88% # Number of instructions issued per FU type, per thread (Count)
system.cpu0.statIssuedInstType_0::MemRead      5689616      2.87%     58.75% # Number of instructions issued per FU type, per thread (Count)
system.cpu0.statIssuedInstType_0::MemWrite     12563089      6.33%     65.08% # Number of instructions issued per FU type, per thread (Count)
system.cpu0.statIssuedInstType_0::FloatMemRead     38778419     19.55%     84.62% # Number of instructions issued per FU type, per thread (Count)
system.cpu0.statIssuedInstType_0::FloatMemWrite     30504050     15.38%    100.00% # Number of instructions issued per FU type, per thread (Count)
system.cpu0.statIssuedInstType_0::IprAccess            0      0.00%    100.00% # Number of instructions issued per FU type, per thread (Count)
system.cpu0.statIssuedInstType_0::InstPrefetch            0      0.00%    100.00% # Number of instructions issued per FU type, per thread (Count)
system.cpu0.statIssuedInstType_0::total     198390344                       # Number of instructions issued per FU type, per thread (Count)
system.cpu0.issueRate                        0.340616                       # Inst issue rate ((Count/Cycle))
system.cpu0.fuBusy                           11748127                       # FU busy when requested (Count)
system.cpu0.fuBusyRate                       0.059217                       # FU busy rate (busy events/executed inst) ((Count/Count))
system.cpu0.intInstQueueReads               782093743                       # Number of integer instruction queue reads (Count)
system.cpu0.intInstQueueWrites              153157791                       # Number of integer instruction queue writes (Count)
system.cpu0.intInstQueueWakeupAccesses       86994304                       # Number of integer instruction queue wakeup accesses (Count)
system.cpu0.fpInstQueueReads                208449890                       # Number of floating instruction queue reads (Count)
system.cpu0.fpInstQueueWrites               141180457                       # Number of floating instruction queue writes (Count)
system.cpu0.fpInstQueueWakeupAccesses       100110123                       # Number of floating instruction queue wakeup accesses (Count)
system.cpu0.vecInstQueueReads                       0                       # Number of vector instruction queue reads (Count)
system.cpu0.vecInstQueueWrites                      0                       # Number of vector instruction queue writes (Count)
system.cpu0.vecInstQueueWakeupAccesses              0                       # Number of vector instruction queue wakeup accesses (Count)
system.cpu0.intAluAccesses                   91023650                       # Number of integer alu accesses (Count)
system.cpu0.fpAluAccesses                   108089308                       # Number of floating point alu accesses (Count)
system.cpu0.vecAluAccesses                          0                       # Number of vector alu accesses (Count)
system.cpu0.numInsts                        198367949                       # Number of executed instructions (Count)
system.cpu0.numLoadInsts                     44463321                       # Number of load instructions executed (Count)
system.cpu0.numSquashedInsts                    22395                       # Number of squashed instructions skipped in execute (Count)
system.cpu0.numSwp                                  0                       # Number of swp insts executed (Count)
system.cpu0.numNop                                  0                       # Number of nop insts executed (Count)
system.cpu0.numRefs                          87527177                       # Number of memory reference insts executed (Count)
system.cpu0.numBranches                       9169506                       # Number of branches executed (Count)
system.cpu0.numStoreInsts                    43063856                       # Number of stores executed (Count)
system.cpu0.numRate                          0.340578                       # Inst execution rate ((Count/Cycle))
system.cpu0.timesIdled                           1862                       # Number of times that the entire CPU went into an idle state and unscheduled itself (Count)
system.cpu0.idleCycles                         433966                       # Total number of cycles that the CPU has spent unscheduled due to idling (Cycle)
system.cpu0.committedInsts                   56274734                       # Number of Instructions Simulated (Count)
system.cpu0.committedOps                    102182074                       # Number of Ops (including micro ops) Simulated (Count)
system.cpu0.cpi                             10.350033                       # CPI: Cycles Per Instruction ((Cycle/Count))
system.cpu0.totalCpi                        10.350033                       # CPI: Total CPI of All Threads ((Cycle/Count))
system.cpu0.ipc                              0.096618                       # IPC: Instructions Per Cycle ((Count/Cycle))
system.cpu0.totalIpc                         0.096618                       # IPC: Total IPC of All Threads ((Count/Cycle))
system.cpu0.intRegfileReads                 156205147                       # Number of integer regfile reads (Count)
system.cpu0.intRegfileWrites                 53599775                       # Number of integer regfile writes (Count)
system.cpu0.fpRegfileReads                   96163291                       # Number of floating regfile reads (Count)
system.cpu0.fpRegfileWrites                  66599437                       # Number of floating regfile writes (Count)
system.cpu0.ccRegfileReads                   51757122                       # number of cc regfile reads (Count)
system.cpu0.ccRegfileWrites                  47817997                       # number of cc regfile writes (Count)
system.cpu0.miscRegfileReads                105886835                       # number of misc regfile reads (Count)
system.cpu0.miscRegfileWrites                     234                       # number of misc regfile writes (Count)
system.cpu0.MemDepUnit__0.insertedLoads      44229554                       # Number of loads inserted to the mem dependence unit. (Count)
system.cpu0.MemDepUnit__0.insertedStores     43073014                       # Number of stores inserted to the mem dependence unit. (Count)
system.cpu0.MemDepUnit__0.conflictingLoads       504326                       # Number of conflicting loads. (Count)
system.cpu0.MemDepUnit__0.conflictingStores       503305                       # Number of conflicting stores. (Count)
system.cpu0.MemDepUnit__1.insertedLoads             0                       # Number of loads inserted to the mem dependence unit. (Count)
system.cpu0.MemDepUnit__1.insertedStores            0                       # Number of stores inserted to the mem dependence unit. (Count)
system.cpu0.MemDepUnit__1.conflictingLoads            0                       # Number of conflicting loads. (Count)
system.cpu0.MemDepUnit__1.conflictingStores            0                       # Number of conflicting stores. (Count)
system.cpu0.MemDepUnit__2.insertedLoads             0                       # Number of loads inserted to the mem dependence unit. (Count)
system.cpu0.MemDepUnit__2.insertedStores            0                       # Number of stores inserted to the mem dependence unit. (Count)
system.cpu0.MemDepUnit__2.conflictingLoads            0                       # Number of conflicting loads. (Count)
system.cpu0.MemDepUnit__2.conflictingStores            0                       # Number of conflicting stores. (Count)
system.cpu0.MemDepUnit__3.insertedLoads             0                       # Number of loads inserted to the mem dependence unit. (Count)
system.cpu0.MemDepUnit__3.insertedStores            0                       # Number of stores inserted to the mem dependence unit. (Count)
system.cpu0.MemDepUnit__3.conflictingLoads            0                       # Number of conflicting loads. (Count)
system.cpu0.MemDepUnit__3.conflictingStores            0                       # Number of conflicting stores. (Count)
system.cpu0.branchPred.lookups               10225459                       # Number of BP lookups (Count)
system.cpu0.branchPred.condPredicted         10166155                       # Number of conditional branches predicted (Count)
system.cpu0.branchPred.condIncorrect             9096                       # Number of conditional branches incorrect (Count)
system.cpu0.branchPred.BTBLookups             7067332                       # Number of BTB lookups (Count)
system.cpu0.branchPred.BTBHits                7063654                       # Number of BTB hits (Count)
system.cpu0.branchPred.BTBHitRatio           0.999480                       # BTB Hit Ratio (Ratio)
system.cpu0.branchPred.RASUsed                  16699                       # Number of times the RAS was used to get a target. (Count)
system.cpu0.branchPred.RASIncorrect                21                       # Number of incorrect RAS predictions. (Count)
system.cpu0.branchPred.indirectLookups           9840                       # Number of indirect predictor lookups. (Count)
system.cpu0.branchPred.indirectHits              5564                       # Number of indirect target hits. (Count)
system.cpu0.branchPred.indirectMisses            4276                       # Number of indirect misses. (Count)
system.cpu0.branchPred.indirectMispredicted          875                       # Number of mispredicted indirect branches. (Count)
system.cpu0.commit.commitSquashedInsts       80240550                       # The number of squashed insts skipped by commit (Count)
system.cpu0.commit.commitNonSpecStalls            760                       # The number of times commit has been forced to stall to communicate backwards (Count)
system.cpu0.commit.branchMispredicts             8824                       # The number of times a branch was mispredicted (Count)
system.cpu0.commit.numCommittedDist::samples    571439571                       # Number of insts commited each cycle (Count)
system.cpu0.commit.numCommittedDist::mean     0.178815                       # Number of insts commited each cycle (Count)
system.cpu0.commit.numCommittedDist::stdev     1.011149                       # Number of insts commited each cycle (Count)
system.cpu0.commit.numCommittedDist::underflows            0      0.00%      0.00% # Number of insts commited each cycle (Count)
system.cpu0.commit.numCommittedDist::0      544945093     95.36%     95.36% # Number of insts commited each cycle (Count)
system.cpu0.commit.numCommittedDist::1        8488283      1.49%     96.85% # Number of insts commited each cycle (Count)
system.cpu0.commit.numCommittedDist::2        2934489      0.51%     97.36% # Number of insts commited each cycle (Count)
system.cpu0.commit.numCommittedDist::3        2854735      0.50%     97.86% # Number of insts commited each cycle (Count)
system.cpu0.commit.numCommittedDist::4        4047221      0.71%     98.57% # Number of insts commited each cycle (Count)
system.cpu0.commit.numCommittedDist::5         522196      0.09%     98.66% # Number of insts commited each cycle (Count)
system.cpu0.commit.numCommittedDist::6          73664      0.01%     98.67% # Number of insts commited each cycle (Count)
system.cpu0.commit.numCommittedDist::7         572360      0.10%     98.77% # Number of insts commited each cycle (Count)
system.cpu0.commit.numCommittedDist::8        7001530      1.23%    100.00% # Number of insts commited each cycle (Count)
system.cpu0.commit.numCommittedDist::overflows            0      0.00%    100.00% # Number of insts commited each cycle (Count)
system.cpu0.commit.numCommittedDist::min_value            0                       # Number of insts commited each cycle (Count)
system.cpu0.commit.numCommittedDist::max_value            8                       # Number of insts commited each cycle (Count)
system.cpu0.commit.numCommittedDist::total    571439571                       # Number of insts commited each cycle (Count)
system.cpu0.commit.instsCommitted            56274734                       # Number of instructions committed (Count)
system.cpu0.commit.opsCommitted             102182074                       # Number of ops (including micro ops) committed (Count)
system.cpu0.commit.memRefs                   30200241                       # Number of memory references committed (Count)
system.cpu0.commit.loads                     19152315                       # Number of loads committed (Count)
system.cpu0.commit.amos                             0                       # Number of atomic instructions committed (Count)
system.cpu0.commit.membars                        348                       # Number of memory barriers committed (Count)
system.cpu0.commit.branches                   6628752                       # Number of branches committed (Count)
system.cpu0.commit.vectorInstructions               0                       # Number of committed Vector instructions. (Count)
system.cpu0.commit.floating                  59062701                       # Number of committed floating point instructions. (Count)
system.cpu0.commit.integer                   71089288                       # Number of committed integer instructions. (Count)
system.cpu0.commit.functionCalls                 7700                       # Number of function calls committed. (Count)
system.cpu0.commit.committedInstType_0::No_OpClass        11759      0.01%      0.01% # Class of committed instruction (Count)
system.cpu0.commit.committedInstType_0::IntAlu     48930035     47.89%     47.90% # Class of committed instruction (Count)
system.cpu0.commit.committedInstType_0::IntMult          256      0.00%     47.90% # Class of committed instruction (Count)
system.cpu0.commit.committedInstType_0::IntDiv         2822      0.00%     47.90% # Class of committed instruction (Count)
system.cpu0.commit.committedInstType_0::FloatAdd      5503208      5.39%     53.29% # Class of committed instruction (Count)
system.cpu0.commit.committedInstType_0::FloatCmp            0      0.00%     53.29% # Class of committed instruction (Count)
system.cpu0.commit.committedInstType_0::FloatCvt          416      0.00%     53.29% # Class of committed instruction (Count)
system.cpu0.commit.committedInstType_0::FloatMult            0      0.00%     53.29% # Class of committed instruction (Count)
system.cpu0.commit.committedInstType_0::FloatMultAcc            0      0.00%     53.29% # Class of committed instruction (Count)
system.cpu0.commit.committedInstType_0::FloatDiv            0      0.00%     53.29% # Class of committed instruction (Count)
system.cpu0.commit.committedInstType_0::FloatMisc            0      0.00%     53.29% # Class of committed instruction (Count)
system.cpu0.commit.committedInstType_0::FloatSqrt            0      0.00%     53.29% # Class of committed instruction (Count)
system.cpu0.commit.committedInstType_0::SimdAdd         1114      0.00%     53.29% # Class of committed instruction (Count)
system.cpu0.commit.committedInstType_0::SimdAddAcc            0      0.00%     53.29% # Class of committed instruction (Count)
system.cpu0.commit.committedInstType_0::SimdAlu        11847      0.01%     53.30% # Class of committed instruction (Count)
system.cpu0.commit.committedInstType_0::SimdCmp           66      0.00%     53.30% # Class of committed instruction (Count)
system.cpu0.commit.committedInstType_0::SimdCvt         3136      0.00%     53.30% # Class of committed instruction (Count)
system.cpu0.commit.committedInstType_0::SimdMisc         3020      0.00%     53.30% # Class of committed instruction (Count)
system.cpu0.commit.committedInstType_0::SimdMult            0      0.00%     53.30% # Class of committed instruction (Count)
system.cpu0.commit.committedInstType_0::SimdMultAcc            0      0.00%     53.30% # Class of committed instruction (Count)
system.cpu0.commit.committedInstType_0::SimdShift          541      0.00%     53.31% # Class of committed instruction (Count)
system.cpu0.commit.committedInstType_0::SimdShiftAcc            0      0.00%     53.31% # Class of committed instruction (Count)
system.cpu0.commit.committedInstType_0::SimdDiv            0      0.00%     53.31% # Class of committed instruction (Count)
system.cpu0.commit.committedInstType_0::SimdSqrt            0      0.00%     53.31% # Class of committed instruction (Count)
system.cpu0.commit.committedInstType_0::SimdFloatAdd     10504510     10.28%     63.59% # Class of committed instruction (Count)
system.cpu0.commit.committedInstType_0::SimdFloatAlu            0      0.00%     63.59% # Class of committed instruction (Count)
system.cpu0.commit.committedInstType_0::SimdFloatCmp           24      0.00%     63.59% # Class of committed instruction (Count)
system.cpu0.commit.committedInstType_0::SimdFloatCvt      3006778      2.94%     66.53% # Class of committed instruction (Count)
system.cpu0.commit.committedInstType_0::SimdFloatDiv           15      0.00%     66.53% # Class of committed instruction (Count)
system.cpu0.commit.committedInstType_0::SimdFloatMisc            0      0.00%     66.53% # Class of committed instruction (Count)
system.cpu0.commit.committedInstType_0::SimdFloatMult      4002286      3.92%     70.44% # Class of committed instruction (Count)
system.cpu0.commit.committedInstType_0::SimdFloatMultAcc            0      0.00%     70.44% # Class of committed instruction (Count)
system.cpu0.commit.committedInstType_0::SimdFloatSqrt            0      0.00%     70.44% # Class of committed instruction (Count)
system.cpu0.commit.committedInstType_0::SimdReduceAdd            0      0.00%     70.44% # Class of committed instruction (Count)
system.cpu0.commit.committedInstType_0::SimdReduceAlu            0      0.00%     70.44% # Class of committed instruction (Count)
system.cpu0.commit.committedInstType_0::SimdReduceCmp            0      0.00%     70.44% # Class of committed instruction (Count)
system.cpu0.commit.committedInstType_0::SimdFloatReduceAdd            0      0.00%     70.44% # Class of committed instruction (Count)
system.cpu0.commit.committedInstType_0::SimdFloatReduceCmp            0      0.00%     70.44% # Class of committed instruction (Count)
system.cpu0.commit.committedInstType_0::SimdAes            0      0.00%     70.44% # Class of committed instruction (Count)
system.cpu0.commit.committedInstType_0::SimdAesMix            0      0.00%     70.44% # Class of committed instruction (Count)
system.cpu0.commit.committedInstType_0::SimdSha1Hash            0      0.00%     70.44% # Class of committed instruction (Count)
system.cpu0.commit.committedInstType_0::SimdSha1Hash2            0      0.00%     70.44% # Class of committed instruction (Count)
system.cpu0.commit.committedInstType_0::SimdSha256Hash            0      0.00%     70.44% # Class of committed instruction (Count)
system.cpu0.commit.committedInstType_0::SimdSha256Hash2            0      0.00%     70.44% # Class of committed instruction (Count)
system.cpu0.commit.committedInstType_0::SimdShaSigma2            0      0.00%     70.44% # Class of committed instruction (Count)
system.cpu0.commit.committedInstType_0::SimdShaSigma3            0      0.00%     70.44% # Class of committed instruction (Count)
system.cpu0.commit.committedInstType_0::SimdPredAlu            0      0.00%     70.44% # Class of committed instruction (Count)
system.cpu0.commit.committedInstType_0::MemRead       635908      0.62%     71.07% # Class of committed instruction (Count)
system.cpu0.commit.committedInstType_0::MemWrite      1543812      1.51%     72.58% # Class of committed instruction (Count)
system.cpu0.commit.committedInstType_0::FloatMemRead     18516407     18.12%     90.70% # Class of committed instruction (Count)
system.cpu0.commit.committedInstType_0::FloatMemWrite      9504114      9.30%    100.00% # Class of committed instruction (Count)
system.cpu0.commit.committedInstType_0::IprAccess            0      0.00%    100.00% # Class of committed instruction (Count)
system.cpu0.commit.committedInstType_0::InstPrefetch            0      0.00%    100.00% # Class of committed instruction (Count)
system.cpu0.commit.committedInstType_0::total    102182074                       # Class of committed instruction (Count)
system.cpu0.commit.commitEligibleSamples      7001530                       # number cycles where commit BW limit reached (Cycle)
system.cpu0.dcache.demandHits::cpu0.data     36461825                       # number of demand (read+write) hits (Count)
system.cpu0.dcache.demandHits::total         36461825                       # number of demand (read+write) hits (Count)
system.cpu0.dcache.overallHits::cpu0.data     41705651                       # number of overall hits (Count)
system.cpu0.dcache.overallHits::total        41705651                       # number of overall hits (Count)
system.cpu0.dcache.demandMisses::cpu0.data     12289726                       # number of demand (read+write) misses (Count)
system.cpu0.dcache.demandMisses::total       12289726                       # number of demand (read+write) misses (Count)
system.cpu0.dcache.overallMisses::cpu0.data     12545748                       # number of overall misses (Count)
system.cpu0.dcache.overallMisses::total      12545748                       # number of overall misses (Count)
system.cpu0.dcache.demandMissLatency::cpu0.data 488869900990                       # number of demand (read+write) miss ticks (Tick)
system.cpu0.dcache.demandMissLatency::total 488869900990                       # number of demand (read+write) miss ticks (Tick)
system.cpu0.dcache.overallMissLatency::cpu0.data 488869900990                       # number of overall miss ticks (Tick)
system.cpu0.dcache.overallMissLatency::total 488869900990                       # number of overall miss ticks (Tick)
system.cpu0.dcache.demandAccesses::cpu0.data     48751551                       # number of demand (read+write) accesses (Count)
system.cpu0.dcache.demandAccesses::total     48751551                       # number of demand (read+write) accesses (Count)
system.cpu0.dcache.overallAccesses::cpu0.data     54251399                       # number of overall (read+write) accesses (Count)
system.cpu0.dcache.overallAccesses::total     54251399                       # number of overall (read+write) accesses (Count)
system.cpu0.dcache.demandMissRate::cpu0.data     0.252089                       # miss rate for demand accesses (Ratio)
system.cpu0.dcache.demandMissRate::total     0.252089                       # miss rate for demand accesses (Ratio)
system.cpu0.dcache.overallMissRate::cpu0.data     0.231252                       # miss rate for overall accesses (Ratio)
system.cpu0.dcache.overallMissRate::total     0.231252                       # miss rate for overall accesses (Ratio)
system.cpu0.dcache.demandAvgMissLatency::cpu0.data 39778.746979                       # average overall miss latency in ticks ((Tick/Count))
system.cpu0.dcache.demandAvgMissLatency::total 39778.746979                       # average overall miss latency in ticks ((Tick/Count))
system.cpu0.dcache.overallAvgMissLatency::cpu0.data 38966.979170                       # average overall miss latency ((Tick/Count))
system.cpu0.dcache.overallAvgMissLatency::total 38966.979170                       # average overall miss latency ((Tick/Count))
system.cpu0.dcache.blockedCycles::no_mshrs     30716970                       # number of cycles access was blocked (Cycle)
system.cpu0.dcache.blockedCycles::no_targets          373                       # number of cycles access was blocked (Cycle)
system.cpu0.dcache.blockedCauses::no_mshrs       692017                       # number of times access was blocked (Count)
system.cpu0.dcache.blockedCauses::no_targets            4                       # number of times access was blocked (Count)
system.cpu0.dcache.avgBlocked::no_mshrs     44.387595                       # average number of cycles each access was blocked ((Cycle/Count))
system.cpu0.dcache.avgBlocked::no_targets    93.250000                       # average number of cycles each access was blocked ((Cycle/Count))
system.cpu0.dcache.writebacks::writebacks      1251997                       # number of writebacks (Count)
system.cpu0.dcache.writebacks::total          1251997                       # number of writebacks (Count)
system.cpu0.dcache.demandMshrHits::cpu0.data      9409150                       # number of demand (read+write) MSHR hits (Count)
system.cpu0.dcache.demandMshrHits::total      9409150                       # number of demand (read+write) MSHR hits (Count)
system.cpu0.dcache.overallMshrHits::cpu0.data      9409150                       # number of overall MSHR hits (Count)
system.cpu0.dcache.overallMshrHits::total      9409150                       # number of overall MSHR hits (Count)
system.cpu0.dcache.demandMshrMisses::cpu0.data      2880576                       # number of demand (read+write) MSHR misses (Count)
system.cpu0.dcache.demandMshrMisses::total      2880576                       # number of demand (read+write) MSHR misses (Count)
system.cpu0.dcache.overallMshrMisses::cpu0.data      3130580                       # number of overall MSHR misses (Count)
system.cpu0.dcache.overallMshrMisses::total      3130580                       # number of overall MSHR misses (Count)
system.cpu0.dcache.demandMshrMissLatency::cpu0.data 281488036240                       # number of demand (read+write) MSHR miss ticks (Tick)
system.cpu0.dcache.demandMshrMissLatency::total 281488036240                       # number of demand (read+write) MSHR miss ticks (Tick)
system.cpu0.dcache.overallMshrMissLatency::cpu0.data 304402068240                       # number of overall MSHR miss ticks (Tick)
system.cpu0.dcache.overallMshrMissLatency::total 304402068240                       # number of overall MSHR miss ticks (Tick)
system.cpu0.dcache.demandMshrMissRate::cpu0.data     0.059087                       # mshr miss ratio for demand accesses (Ratio)
system.cpu0.dcache.demandMshrMissRate::total     0.059087                       # mshr miss ratio for demand accesses (Ratio)
system.cpu0.dcache.overallMshrMissRate::cpu0.data     0.057705                       # mshr miss ratio for overall accesses (Ratio)
system.cpu0.dcache.overallMshrMissRate::total     0.057705                       # mshr miss ratio for overall accesses (Ratio)
system.cpu0.dcache.demandAvgMshrMissLatency::cpu0.data 97719.357601                       # average overall mshr miss latency ((Tick/Count))
system.cpu0.dcache.demandAvgMshrMissLatency::total 97719.357601                       # average overall mshr miss latency ((Tick/Count))
system.cpu0.dcache.overallAvgMshrMissLatency::cpu0.data 97235.038951                       # average overall mshr miss latency ((Tick/Count))
system.cpu0.dcache.overallAvgMshrMissLatency::total 97235.038951                       # average overall mshr miss latency ((Tick/Count))
system.cpu0.dcache.replacements               3129453                       # number of replacements (Count)
system.cpu0.dcache.LockedRMWReadReq.hits::cpu0.data          133                       # number of LockedRMWReadReq hits (Count)
system.cpu0.dcache.LockedRMWReadReq.hits::total          133                       # number of LockedRMWReadReq hits (Count)
system.cpu0.dcache.LockedRMWReadReq.misses::cpu0.data           41                       # number of LockedRMWReadReq misses (Count)
system.cpu0.dcache.LockedRMWReadReq.misses::total           41                       # number of LockedRMWReadReq misses (Count)
system.cpu0.dcache.LockedRMWReadReq.missLatency::cpu0.data       828000                       # number of LockedRMWReadReq miss ticks (Tick)
system.cpu0.dcache.LockedRMWReadReq.missLatency::total       828000                       # number of LockedRMWReadReq miss ticks (Tick)
system.cpu0.dcache.LockedRMWReadReq.accesses::cpu0.data          174                       # number of LockedRMWReadReq accesses(hits+misses) (Count)
system.cpu0.dcache.LockedRMWReadReq.accesses::total          174                       # number of LockedRMWReadReq accesses(hits+misses) (Count)
system.cpu0.dcache.LockedRMWReadReq.missRate::cpu0.data     0.235632                       # miss rate for LockedRMWReadReq accesses (Ratio)
system.cpu0.dcache.LockedRMWReadReq.missRate::total     0.235632                       # miss rate for LockedRMWReadReq accesses (Ratio)
system.cpu0.dcache.LockedRMWReadReq.avgMissLatency::cpu0.data 20195.121951                       # average LockedRMWReadReq miss latency ((Tick/Count))
system.cpu0.dcache.LockedRMWReadReq.avgMissLatency::total 20195.121951                       # average LockedRMWReadReq miss latency ((Tick/Count))
system.cpu0.dcache.LockedRMWReadReq.mshrMisses::cpu0.data           41                       # number of LockedRMWReadReq MSHR misses (Count)
system.cpu0.dcache.LockedRMWReadReq.mshrMisses::total           41                       # number of LockedRMWReadReq MSHR misses (Count)
system.cpu0.dcache.LockedRMWReadReq.mshrMissLatency::cpu0.data      2019501                       # number of LockedRMWReadReq MSHR miss ticks (Tick)
system.cpu0.dcache.LockedRMWReadReq.mshrMissLatency::total      2019501                       # number of LockedRMWReadReq MSHR miss ticks (Tick)
system.cpu0.dcache.LockedRMWReadReq.mshrMissRate::cpu0.data     0.235632                       # mshr miss rate for LockedRMWReadReq accesses (Ratio)
system.cpu0.dcache.LockedRMWReadReq.mshrMissRate::total     0.235632                       # mshr miss rate for LockedRMWReadReq accesses (Ratio)
system.cpu0.dcache.LockedRMWReadReq.avgMshrMissLatency::cpu0.data 49256.121951                       # average LockedRMWReadReq mshr miss latency ((Tick/Count))
system.cpu0.dcache.LockedRMWReadReq.avgMshrMissLatency::total 49256.121951                       # average LockedRMWReadReq mshr miss latency ((Tick/Count))
system.cpu0.dcache.LockedRMWWriteReq.hits::cpu0.data          174                       # number of LockedRMWWriteReq hits (Count)
system.cpu0.dcache.LockedRMWWriteReq.hits::total          174                       # number of LockedRMWWriteReq hits (Count)
system.cpu0.dcache.LockedRMWWriteReq.accesses::cpu0.data          174                       # number of LockedRMWWriteReq accesses(hits+misses) (Count)
system.cpu0.dcache.LockedRMWWriteReq.accesses::total          174                       # number of LockedRMWWriteReq accesses(hits+misses) (Count)
system.cpu0.dcache.ReadReq.hits::cpu0.data     27602891                       # number of ReadReq hits (Count)
system.cpu0.dcache.ReadReq.hits::total       27602891                       # number of ReadReq hits (Count)
system.cpu0.dcache.ReadReq.misses::cpu0.data     11100871                       # number of ReadReq misses (Count)
system.cpu0.dcache.ReadReq.misses::total     11100871                       # number of ReadReq misses (Count)
system.cpu0.dcache.ReadReq.missLatency::cpu0.data 375393132000                       # number of ReadReq miss ticks (Tick)
system.cpu0.dcache.ReadReq.missLatency::total 375393132000                       # number of ReadReq miss ticks (Tick)
system.cpu0.dcache.ReadReq.accesses::cpu0.data     38703762                       # number of ReadReq accesses(hits+misses) (Count)
system.cpu0.dcache.ReadReq.accesses::total     38703762                       # number of ReadReq accesses(hits+misses) (Count)
system.cpu0.dcache.ReadReq.missRate::cpu0.data     0.286816                       # miss rate for ReadReq accesses (Ratio)
system.cpu0.dcache.ReadReq.missRate::total     0.286816                       # miss rate for ReadReq accesses (Ratio)
system.cpu0.dcache.ReadReq.avgMissLatency::cpu0.data 33816.547548                       # average ReadReq miss latency ((Tick/Count))
system.cpu0.dcache.ReadReq.avgMissLatency::total 33816.547548                       # average ReadReq miss latency ((Tick/Count))
system.cpu0.dcache.ReadReq.mshrHits::cpu0.data      9409123                       # number of ReadReq MSHR hits (Count)
system.cpu0.dcache.ReadReq.mshrHits::total      9409123                       # number of ReadReq MSHR hits (Count)
system.cpu0.dcache.ReadReq.mshrMisses::cpu0.data      1691748                       # number of ReadReq MSHR misses (Count)
system.cpu0.dcache.ReadReq.mshrMisses::total      1691748                       # number of ReadReq MSHR misses (Count)
system.cpu0.dcache.ReadReq.mshrMissLatency::cpu0.data 168608105500                       # number of ReadReq MSHR miss ticks (Tick)
system.cpu0.dcache.ReadReq.mshrMissLatency::total 168608105500                       # number of ReadReq MSHR miss ticks (Tick)
system.cpu0.dcache.ReadReq.mshrMissRate::cpu0.data     0.043710                       # mshr miss rate for ReadReq accesses (Ratio)
system.cpu0.dcache.ReadReq.mshrMissRate::total     0.043710                       # mshr miss rate for ReadReq accesses (Ratio)
system.cpu0.dcache.ReadReq.avgMshrMissLatency::cpu0.data 99665.024283                       # average ReadReq mshr miss latency ((Tick/Count))
system.cpu0.dcache.ReadReq.avgMshrMissLatency::total 99665.024283                       # average ReadReq mshr miss latency ((Tick/Count))
system.cpu0.dcache.SoftPFReq.hits::cpu0.data      5243826                       # number of SoftPFReq hits (Count)
system.cpu0.dcache.SoftPFReq.hits::total      5243826                       # number of SoftPFReq hits (Count)
system.cpu0.dcache.SoftPFReq.misses::cpu0.data       256022                       # number of SoftPFReq misses (Count)
system.cpu0.dcache.SoftPFReq.misses::total       256022                       # number of SoftPFReq misses (Count)
system.cpu0.dcache.SoftPFReq.accesses::cpu0.data      5499848                       # number of SoftPFReq accesses(hits+misses) (Count)
system.cpu0.dcache.SoftPFReq.accesses::total      5499848                       # number of SoftPFReq accesses(hits+misses) (Count)
system.cpu0.dcache.SoftPFReq.missRate::cpu0.data     0.046551                       # miss rate for SoftPFReq accesses (Ratio)
system.cpu0.dcache.SoftPFReq.missRate::total     0.046551                       # miss rate for SoftPFReq accesses (Ratio)
system.cpu0.dcache.SoftPFReq.mshrMisses::cpu0.data       250004                       # number of SoftPFReq MSHR misses (Count)
system.cpu0.dcache.SoftPFReq.mshrMisses::total       250004                       # number of SoftPFReq MSHR misses (Count)
system.cpu0.dcache.SoftPFReq.mshrMissLatency::cpu0.data  22914032000                       # number of SoftPFReq MSHR miss ticks (Tick)
system.cpu0.dcache.SoftPFReq.mshrMissLatency::total  22914032000                       # number of SoftPFReq MSHR miss ticks (Tick)
system.cpu0.dcache.SoftPFReq.mshrMissRate::cpu0.data     0.045457                       # mshr miss rate for SoftPFReq accesses (Ratio)
system.cpu0.dcache.SoftPFReq.mshrMissRate::total     0.045457                       # mshr miss rate for SoftPFReq accesses (Ratio)
system.cpu0.dcache.SoftPFReq.avgMshrMissLatency::cpu0.data 91654.661525                       # average SoftPFReq mshr miss latency ((Tick/Count))
system.cpu0.dcache.SoftPFReq.avgMshrMissLatency::total 91654.661525                       # average SoftPFReq mshr miss latency ((Tick/Count))
system.cpu0.dcache.WriteReq.hits::cpu0.data      8858934                       # number of WriteReq hits (Count)
system.cpu0.dcache.WriteReq.hits::total       8858934                       # number of WriteReq hits (Count)
system.cpu0.dcache.WriteReq.misses::cpu0.data      1188855                       # number of WriteReq misses (Count)
system.cpu0.dcache.WriteReq.misses::total      1188855                       # number of WriteReq misses (Count)
system.cpu0.dcache.WriteReq.missLatency::cpu0.data 113476768990                       # number of WriteReq miss ticks (Tick)
system.cpu0.dcache.WriteReq.missLatency::total 113476768990                       # number of WriteReq miss ticks (Tick)
system.cpu0.dcache.WriteReq.accesses::cpu0.data     10047789                       # number of WriteReq accesses(hits+misses) (Count)
system.cpu0.dcache.WriteReq.accesses::total     10047789                       # number of WriteReq accesses(hits+misses) (Count)
system.cpu0.dcache.WriteReq.missRate::cpu0.data     0.118320                       # miss rate for WriteReq accesses (Ratio)
system.cpu0.dcache.WriteReq.missRate::total     0.118320                       # miss rate for WriteReq accesses (Ratio)
system.cpu0.dcache.WriteReq.avgMissLatency::cpu0.data 95450.470402                       # average WriteReq miss latency ((Tick/Count))
system.cpu0.dcache.WriteReq.avgMissLatency::total 95450.470402                       # average WriteReq miss latency ((Tick/Count))
system.cpu0.dcache.WriteReq.mshrHits::cpu0.data           27                       # number of WriteReq MSHR hits (Count)
system.cpu0.dcache.WriteReq.mshrHits::total           27                       # number of WriteReq MSHR hits (Count)
system.cpu0.dcache.WriteReq.mshrMisses::cpu0.data      1188828                       # number of WriteReq MSHR misses (Count)
system.cpu0.dcache.WriteReq.mshrMisses::total      1188828                       # number of WriteReq MSHR misses (Count)
system.cpu0.dcache.WriteReq.mshrMissLatency::cpu0.data 112879930740                       # number of WriteReq MSHR miss ticks (Tick)
system.cpu0.dcache.WriteReq.mshrMissLatency::total 112879930740                       # number of WriteReq MSHR miss ticks (Tick)
system.cpu0.dcache.WriteReq.mshrMissRate::cpu0.data     0.118317                       # mshr miss rate for WriteReq accesses (Ratio)
system.cpu0.dcache.WriteReq.mshrMissRate::total     0.118317                       # mshr miss rate for WriteReq accesses (Ratio)
system.cpu0.dcache.WriteReq.avgMshrMissLatency::cpu0.data 94950.599027                       # average WriteReq mshr miss latency ((Tick/Count))
system.cpu0.dcache.WriteReq.avgMshrMissLatency::total 94950.599027                       # average WriteReq mshr miss latency ((Tick/Count))
system.cpu0.dcache.power_state.pwrStateResidencyTicks::UNDEFINED 145611339250                       # Cumulative time (in ticks) in various power states (Tick)
system.cpu0.dcache.tags.tagsInUse         1023.570711                       # Average ticks per tags in use ((Tick/Count))
system.cpu0.dcache.tags.totalRefs            44836581                       # Total number of references to valid blocks. (Count)
system.cpu0.dcache.tags.sampledRefs           3130544                       # Sample count of references to valid blocks. (Count)
system.cpu0.dcache.tags.avgRefs             14.322297                       # Average number of references to valid blocks. ((Count/Count))
system.cpu0.dcache.tags.warmupTick             170250                       # The tick when the warmup percentage was hit. (Tick)
system.cpu0.dcache.tags.occupancies::cpu0.data  1023.570711                       # Average occupied blocks per tick, per requestor ((Count/Tick))
system.cpu0.dcache.tags.avgOccs::cpu0.data     0.999581                       # Average percentage of cache occupancy ((Ratio/Tick))
system.cpu0.dcache.tags.avgOccs::total       0.999581                       # Average percentage of cache occupancy ((Ratio/Tick))
system.cpu0.dcache.tags.occupanciesTaskId::1024         1024                       # Occupied blocks per task id (Count)
system.cpu0.dcache.tags.ageTaskId_1024::0          124                       # Occupied blocks per task id, per block age (Count)
system.cpu0.dcache.tags.ageTaskId_1024::1          898                       # Occupied blocks per task id, per block age (Count)
system.cpu0.dcache.tags.ageTaskId_1024::4            2                       # Occupied blocks per task id, per block age (Count)
system.cpu0.dcache.tags.ratioOccsTaskId::1024            1                       # Ratio of occupied blocks and all blocks, per task id (Ratio)
system.cpu0.dcache.tags.tagAccesses         111634038                       # Number of tag accesses (Count)
system.cpu0.dcache.tags.dataAccesses        111634038                       # Number of data accesses (Count)
system.cpu0.dcache.tags.power_state.pwrStateResidencyTicks::UNDEFINED 145611339250                       # Cumulative time (in ticks) in various power states (Tick)
system.cpu0.decode.idleCycles                 6579114                       # Number of cycles decode is idle (Cycle)
system.cpu0.decode.blockedCycles            546278946                       # Number of cycles decode is blocked (Cycle)
system.cpu0.decode.runCycles                 21366747                       # Number of cycles decode is running (Cycle)
system.cpu0.decode.unblockCycles              6774923                       # Number of cycles decode is unblocking (Cycle)
system.cpu0.decode.squashCycles               1011662                       # Number of cycles decode is squashing (Cycle)
system.cpu0.decode.branchResolved             6310304                       # Number of times decode resolved a branch (Count)
system.cpu0.decode.branchMispred                 1189                       # Number of times decode detected a branch misprediction (Count)
system.cpu0.decode.decodedInsts             209626794                       # Number of instructions handled by decode (Count)
system.cpu0.decode.squashedInsts                 5580                       # Number of squashed instructions handled by decode (Count)
system.cpu0.dtb_walker_cache.blockedCycles::no_mshrs            0                       # number of cycles access was blocked (Cycle)
system.cpu0.dtb_walker_cache.blockedCycles::no_targets            0                       # number of cycles access was blocked (Cycle)
system.cpu0.dtb_walker_cache.blockedCauses::no_mshrs            0                       # number of times access was blocked (Count)
system.cpu0.dtb_walker_cache.blockedCauses::no_targets            0                       # number of times access was blocked (Count)
system.cpu0.dtb_walker_cache.avgBlocked::no_mshrs          nan                       # average number of cycles each access was blocked ((Cycle/Count))
system.cpu0.dtb_walker_cache.avgBlocked::no_targets          nan                       # average number of cycles each access was blocked ((Cycle/Count))
system.cpu0.dtb_walker_cache.replacements            0                       # number of replacements (Count)
system.cpu0.dtb_walker_cache.power_state.pwrStateResidencyTicks::UNDEFINED 145611339250                       # Cumulative time (in ticks) in various power states (Tick)
system.cpu0.dtb_walker_cache.tags.tagsInUse            0                       # Average ticks per tags in use ((Tick/Count))
system.cpu0.dtb_walker_cache.tags.totalRefs            0                       # Total number of references to valid blocks. (Count)
system.cpu0.dtb_walker_cache.tags.sampledRefs            0                       # Sample count of references to valid blocks. (Count)
system.cpu0.dtb_walker_cache.tags.avgRefs          nan                       # Average number of references to valid blocks. ((Count/Count))
system.cpu0.dtb_walker_cache.tags.warmupTick            0                       # The tick when the warmup percentage was hit. (Tick)
system.cpu0.dtb_walker_cache.tags.tagAccesses            0                       # Number of tag accesses (Count)
system.cpu0.dtb_walker_cache.tags.dataAccesses            0                       # Number of data accesses (Count)
system.cpu0.dtb_walker_cache.tags.power_state.pwrStateResidencyTicks::UNDEFINED 145611339250                       # Cumulative time (in ticks) in various power states (Tick)
system.cpu0.fetch.icacheStallCycles          13991319                       # Number of cycles fetch is stalled on an Icache miss (Cycle)
system.cpu0.fetch.insts                     113195581                       # Number of instructions fetch has processed (Count)
system.cpu0.fetch.branches                   10225459                       # Number of branches that fetch encountered (Count)
system.cpu0.fetch.predictedBranches           7085917                       # Number of branches that fetch has predicted taken (Count)
system.cpu0.fetch.cycles                    566999884                       # Number of cycles fetch has run and was not squashing or blocked (Cycle)
system.cpu0.fetch.squashCycles                2025656                       # Number of cycles fetch has spent squashing (Cycle)
system.cpu0.fetch.miscStallCycles                 943                       # Number of cycles fetch has spent waiting on interrupts, or bad addresses, or out of MSHRs (Cycle)
system.cpu0.fetch.pendingTrapStallCycles         6365                       # Number of stall cycles due to pending traps (Cycle)
system.cpu0.fetch.icacheWaitRetryStallCycles           53                       # Number of stall cycles due to full MSHR (Cycle)
system.cpu0.fetch.cacheLines                 13837496                       # Number of cache lines fetched (Count)
system.cpu0.fetch.icacheSquashes                 5651                       # Number of outstanding Icache misses that were squashed (Count)
system.cpu0.fetch.nisnDist::samples         582011392                       # Number of instructions fetched each cycle (Total) (Count)
system.cpu0.fetch.nisnDist::mean             0.421794                       # Number of instructions fetched each cycle (Total) (Count)
system.cpu0.fetch.nisnDist::stdev            1.676005                       # Number of instructions fetched each cycle (Total) (Count)
system.cpu0.fetch.nisnDist::underflows              0      0.00%      0.00% # Number of instructions fetched each cycle (Total) (Count)
system.cpu0.fetch.nisnDist::0               542264992     93.17%     93.17% # Number of instructions fetched each cycle (Total) (Count)
system.cpu0.fetch.nisnDist::1                 2479706      0.43%     93.60% # Number of instructions fetched each cycle (Total) (Count)
system.cpu0.fetch.nisnDist::2                 1599222      0.27%     93.87% # Number of instructions fetched each cycle (Total) (Count)
system.cpu0.fetch.nisnDist::3                 1516112      0.26%     94.13% # Number of instructions fetched each cycle (Total) (Count)
system.cpu0.fetch.nisnDist::4                 7175228      1.23%     95.37% # Number of instructions fetched each cycle (Total) (Count)
system.cpu0.fetch.nisnDist::5                 1682036      0.29%     95.65% # Number of instructions fetched each cycle (Total) (Count)
system.cpu0.fetch.nisnDist::6                 1619715      0.28%     95.93% # Number of instructions fetched each cycle (Total) (Count)
system.cpu0.fetch.nisnDist::7                  962285      0.17%     96.10% # Number of instructions fetched each cycle (Total) (Count)
system.cpu0.fetch.nisnDist::8                22712096      3.90%    100.00% # Number of instructions fetched each cycle (Total) (Count)
system.cpu0.fetch.nisnDist::overflows               0      0.00%    100.00% # Number of instructions fetched each cycle (Total) (Count)
system.cpu0.fetch.nisnDist::min_value               0                       # Number of instructions fetched each cycle (Total) (Count)
system.cpu0.fetch.nisnDist::max_value               8                       # Number of instructions fetched each cycle (Total) (Count)
system.cpu0.fetch.nisnDist::total           582011392                       # Number of instructions fetched each cycle (Total) (Count)
system.cpu0.fetch.branchRate                 0.017556                       # Number of branch fetches per cycle (Ratio)
system.cpu0.fetch.rate                       0.194345                       # Number of inst fetches per cycle ((Count/Cycle))
system.cpu0.icache.demandHits::cpu0.inst     13833486                       # number of demand (read+write) hits (Count)
system.cpu0.icache.demandHits::total         13833486                       # number of demand (read+write) hits (Count)
system.cpu0.icache.overallHits::cpu0.inst     13833486                       # number of overall hits (Count)
system.cpu0.icache.overallHits::total        13833486                       # number of overall hits (Count)
system.cpu0.icache.demandMisses::cpu0.inst         4010                       # number of demand (read+write) misses (Count)
system.cpu0.icache.demandMisses::total           4010                       # number of demand (read+write) misses (Count)
system.cpu0.icache.overallMisses::cpu0.inst         4010                       # number of overall misses (Count)
system.cpu0.icache.overallMisses::total          4010                       # number of overall misses (Count)
system.cpu0.icache.demandMissLatency::cpu0.inst    264153249                       # number of demand (read+write) miss ticks (Tick)
system.cpu0.icache.demandMissLatency::total    264153249                       # number of demand (read+write) miss ticks (Tick)
system.cpu0.icache.overallMissLatency::cpu0.inst    264153249                       # number of overall miss ticks (Tick)
system.cpu0.icache.overallMissLatency::total    264153249                       # number of overall miss ticks (Tick)
system.cpu0.icache.demandAccesses::cpu0.inst     13837496                       # number of demand (read+write) accesses (Count)
system.cpu0.icache.demandAccesses::total     13837496                       # number of demand (read+write) accesses (Count)
system.cpu0.icache.overallAccesses::cpu0.inst     13837496                       # number of overall (read+write) accesses (Count)
system.cpu0.icache.overallAccesses::total     13837496                       # number of overall (read+write) accesses (Count)
system.cpu0.icache.demandMissRate::cpu0.inst     0.000290                       # miss rate for demand accesses (Ratio)
system.cpu0.icache.demandMissRate::total     0.000290                       # miss rate for demand accesses (Ratio)
system.cpu0.icache.overallMissRate::cpu0.inst     0.000290                       # miss rate for overall accesses (Ratio)
system.cpu0.icache.overallMissRate::total     0.000290                       # miss rate for overall accesses (Ratio)
system.cpu0.icache.demandAvgMissLatency::cpu0.inst 65873.628180                       # average overall miss latency in ticks ((Tick/Count))
system.cpu0.icache.demandAvgMissLatency::total 65873.628180                       # average overall miss latency in ticks ((Tick/Count))
system.cpu0.icache.overallAvgMissLatency::cpu0.inst 65873.628180                       # average overall miss latency ((Tick/Count))
system.cpu0.icache.overallAvgMissLatency::total 65873.628180                       # average overall miss latency ((Tick/Count))
system.cpu0.icache.blockedCycles::no_mshrs         2010                       # number of cycles access was blocked (Cycle)
system.cpu0.icache.blockedCycles::no_targets            0                       # number of cycles access was blocked (Cycle)
system.cpu0.icache.blockedCauses::no_mshrs           15                       # number of times access was blocked (Count)
system.cpu0.icache.blockedCauses::no_targets            0                       # number of times access was blocked (Count)
system.cpu0.icache.avgBlocked::no_mshrs           134                       # average number of cycles each access was blocked ((Cycle/Count))
system.cpu0.icache.avgBlocked::no_targets          nan                       # average number of cycles each access was blocked ((Cycle/Count))
system.cpu0.icache.writebacks::writebacks         2683                       # number of writebacks (Count)
system.cpu0.icache.writebacks::total             2683                       # number of writebacks (Count)
system.cpu0.icache.demandMshrHits::cpu0.inst          801                       # number of demand (read+write) MSHR hits (Count)
system.cpu0.icache.demandMshrHits::total          801                       # number of demand (read+write) MSHR hits (Count)
system.cpu0.icache.overallMshrHits::cpu0.inst          801                       # number of overall MSHR hits (Count)
system.cpu0.icache.overallMshrHits::total          801                       # number of overall MSHR hits (Count)
system.cpu0.icache.demandMshrMisses::cpu0.inst         3209                       # number of demand (read+write) MSHR misses (Count)
system.cpu0.icache.demandMshrMisses::total         3209                       # number of demand (read+write) MSHR misses (Count)
system.cpu0.icache.overallMshrMisses::cpu0.inst         3209                       # number of overall MSHR misses (Count)
system.cpu0.icache.overallMshrMisses::total         3209                       # number of overall MSHR misses (Count)
system.cpu0.icache.demandMshrMissLatency::cpu0.inst    208700499                       # number of demand (read+write) MSHR miss ticks (Tick)
system.cpu0.icache.demandMshrMissLatency::total    208700499                       # number of demand (read+write) MSHR miss ticks (Tick)
system.cpu0.icache.overallMshrMissLatency::cpu0.inst    208700499                       # number of overall MSHR miss ticks (Tick)
system.cpu0.icache.overallMshrMissLatency::total    208700499                       # number of overall MSHR miss ticks (Tick)
system.cpu0.icache.demandMshrMissRate::cpu0.inst     0.000232                       # mshr miss ratio for demand accesses (Ratio)
system.cpu0.icache.demandMshrMissRate::total     0.000232                       # mshr miss ratio for demand accesses (Ratio)
system.cpu0.icache.overallMshrMissRate::cpu0.inst     0.000232                       # mshr miss ratio for overall accesses (Ratio)
system.cpu0.icache.overallMshrMissRate::total     0.000232                       # mshr miss ratio for overall accesses (Ratio)
system.cpu0.icache.demandAvgMshrMissLatency::cpu0.inst 65035.992209                       # average overall mshr miss latency ((Tick/Count))
system.cpu0.icache.demandAvgMshrMissLatency::total 65035.992209                       # average overall mshr miss latency ((Tick/Count))
system.cpu0.icache.overallAvgMshrMissLatency::cpu0.inst 65035.992209                       # average overall mshr miss latency ((Tick/Count))
system.cpu0.icache.overallAvgMshrMissLatency::total 65035.992209                       # average overall mshr miss latency ((Tick/Count))
system.cpu0.icache.replacements                  2683                       # number of replacements (Count)
system.cpu0.icache.ReadReq.hits::cpu0.inst     13833486                       # number of ReadReq hits (Count)
system.cpu0.icache.ReadReq.hits::total       13833486                       # number of ReadReq hits (Count)
system.cpu0.icache.ReadReq.misses::cpu0.inst         4010                       # number of ReadReq misses (Count)
system.cpu0.icache.ReadReq.misses::total         4010                       # number of ReadReq misses (Count)
system.cpu0.icache.ReadReq.missLatency::cpu0.inst    264153249                       # number of ReadReq miss ticks (Tick)
system.cpu0.icache.ReadReq.missLatency::total    264153249                       # number of ReadReq miss ticks (Tick)
system.cpu0.icache.ReadReq.accesses::cpu0.inst     13837496                       # number of ReadReq accesses(hits+misses) (Count)
system.cpu0.icache.ReadReq.accesses::total     13837496                       # number of ReadReq accesses(hits+misses) (Count)
system.cpu0.icache.ReadReq.missRate::cpu0.inst     0.000290                       # miss rate for ReadReq accesses (Ratio)
system.cpu0.icache.ReadReq.missRate::total     0.000290                       # miss rate for ReadReq accesses (Ratio)
system.cpu0.icache.ReadReq.avgMissLatency::cpu0.inst 65873.628180                       # average ReadReq miss latency ((Tick/Count))
system.cpu0.icache.ReadReq.avgMissLatency::total 65873.628180                       # average ReadReq miss latency ((Tick/Count))
system.cpu0.icache.ReadReq.mshrHits::cpu0.inst          801                       # number of ReadReq MSHR hits (Count)
system.cpu0.icache.ReadReq.mshrHits::total          801                       # number of ReadReq MSHR hits (Count)
system.cpu0.icache.ReadReq.mshrMisses::cpu0.inst         3209                       # number of ReadReq MSHR misses (Count)
system.cpu0.icache.ReadReq.mshrMisses::total         3209                       # number of ReadReq MSHR misses (Count)
system.cpu0.icache.ReadReq.mshrMissLatency::cpu0.inst    208700499                       # number of ReadReq MSHR miss ticks (Tick)
system.cpu0.icache.ReadReq.mshrMissLatency::total    208700499                       # number of ReadReq MSHR miss ticks (Tick)
system.cpu0.icache.ReadReq.mshrMissRate::cpu0.inst     0.000232                       # mshr miss rate for ReadReq accesses (Ratio)
system.cpu0.icache.ReadReq.mshrMissRate::total     0.000232                       # mshr miss rate for ReadReq accesses (Ratio)
system.cpu0.icache.ReadReq.avgMshrMissLatency::cpu0.inst 65035.992209                       # average ReadReq mshr miss latency ((Tick/Count))
system.cpu0.icache.ReadReq.avgMshrMissLatency::total 65035.992209                       # average ReadReq mshr miss latency ((Tick/Count))
system.cpu0.icache.power_state.pwrStateResidencyTicks::UNDEFINED 145611339250                       # Cumulative time (in ticks) in various power states (Tick)
system.cpu0.icache.tags.tagsInUse          510.900983                       # Average ticks per tags in use ((Tick/Count))
system.cpu0.icache.tags.totalRefs            13836694                       # Total number of references to valid blocks. (Count)
system.cpu0.icache.tags.sampledRefs              3208                       # Sample count of references to valid blocks. (Count)
system.cpu0.icache.tags.avgRefs           4313.183915                       # Average number of references to valid blocks. ((Count/Count))
system.cpu0.icache.tags.warmupTick              85250                       # The tick when the warmup percentage was hit. (Tick)
system.cpu0.icache.tags.occupancies::cpu0.inst   510.900983                       # Average occupied blocks per tick, per requestor ((Count/Tick))
system.cpu0.icache.tags.avgOccs::cpu0.inst     0.997853                       # Average percentage of cache occupancy ((Ratio/Tick))
system.cpu0.icache.tags.avgOccs::total       0.997853                       # Average percentage of cache occupancy ((Ratio/Tick))
system.cpu0.icache.tags.occupanciesTaskId::1024          511                       # Occupied blocks per task id (Count)
system.cpu0.icache.tags.ageTaskId_1024::0          116                       # Occupied blocks per task id, per block age (Count)
system.cpu0.icache.tags.ageTaskId_1024::1           87                       # Occupied blocks per task id, per block age (Count)
system.cpu0.icache.tags.ageTaskId_1024::4          308                       # Occupied blocks per task id, per block age (Count)
system.cpu0.icache.tags.ratioOccsTaskId::1024     0.998047                       # Ratio of occupied blocks and all blocks, per task id (Ratio)
system.cpu0.icache.tags.tagAccesses          27678200                       # Number of tag accesses (Count)
system.cpu0.icache.tags.dataAccesses         27678200                       # Number of data accesses (Count)
system.cpu0.icache.tags.power_state.pwrStateResidencyTicks::UNDEFINED 145611339250                       # Cumulative time (in ticks) in various power states (Tick)
system.cpu0.iew.idleCycles                          0                       # Number of cycles IEW is idle (Cycle)
system.cpu0.iew.squashCycles                  1011662                       # Number of cycles IEW is squashing (Cycle)
system.cpu0.iew.blockCycles                  45100523                       # Number of cycles IEW is blocking (Cycle)
system.cpu0.iew.unblockCycles                46581090                       # Number of cycles IEW is unblocking (Cycle)
system.cpu0.iew.dispatchedInsts             198260011                       # Number of instructions dispatched to IQ (Count)
system.cpu0.iew.dispSquashedInsts                 888                       # Number of squashed instructions skipped by dispatch (Count)
system.cpu0.iew.dispLoadInsts                44229554                       # Number of dispatched load instructions (Count)
system.cpu0.iew.dispStoreInsts               43073014                       # Number of dispatched store instructions (Count)
system.cpu0.iew.dispNonSpecInsts                  561                       # Number of dispatched non-speculative instructions (Count)
system.cpu0.iew.iqFullEvents                     2089                       # Number of times the IQ has become full, causing a stall (Count)
system.cpu0.iew.lsqFullEvents                46660987                       # Number of times the LSQ has become full, causing a stall (Count)
system.cpu0.iew.memOrderViolationEvents           314                       # Number of memory order violations (Count)
system.cpu0.iew.predictedTakenIncorrect          2946                       # Number of branches that were predicted taken incorrectly (Count)
system.cpu0.iew.predictedNotTakenIncorrect         7696                       # Number of branches that were predicted not taken incorrectly (Count)
system.cpu0.iew.branchMispredicts               10642                       # Number of branch mispredicts detected at execute (Count)
system.cpu0.iew.instsToCommit               198111377                       # Cumulative count of insts sent to commit (Count)
[...]
system.mem_ctrls.dram.perBankWrBursts::7       312721                       # Per bank write bursts (Count)
system.mem_ctrls.dram.perBankWrBursts::8       312640                       # Per bank write bursts (Count)
system.mem_ctrls.dram.perBankWrBursts::9       312538                       # Per bank write bursts (Count)
system.mem_ctrls.dram.perBankWrBursts::10       312552                       # Per bank write bursts (Count)
system.mem_ctrls.dram.perBankWrBursts::11       312548                       # Per bank write bursts (Count)
system.mem_ctrls.dram.perBankWrBursts::12       312538                       # Per bank write bursts (Count)
system.mem_ctrls.dram.perBankWrBursts::13       312600                       # Per bank write bursts (Count)
system.mem_ctrls.dram.perBankWrBursts::14       312616                       # Per bank write bursts (Count)
system.mem_ctrls.dram.perBankWrBursts::15       312688                       # Per bank write bursts (Count)
system.mem_ctrls.dram.totQLat            397716625500                       # Total ticks spent queuing (Tick)
system.mem_ctrls.dram.totBusLat           23527678000                       # Total ticks spent in databus transfers (Tick)
system.mem_ctrls.dram.totMemAccLat       632993405500                       # Total ticks spent from burst creation until serviced by the DRAM (Tick)
system.mem_ctrls.dram.avgQLat                33808.40                       # Average queueing delay per DRAM burst ((Tick/Count))
system.mem_ctrls.dram.avgBusLat               2000.00                       # Average bus latency per DRAM burst ((Tick/Count))
system.mem_ctrls.dram.avgMemAccLat           53808.40                       # Average memory access latency per DRAM burst ((Tick/Count))
system.mem_ctrls.dram.readRowHits             5890070                       # Number of row buffer hits during reads (Count)
system.mem_ctrls.dram.writeRowHits            4302675                       # Number of row buffer hits during writes (Count)
system.mem_ctrls.dram.readRowHitRate            50.07                       # Row buffer hit rate for reads (Ratio)
system.mem_ctrls.dram.writeRowHitRate           86.00                       # Row buffer hit rate for writes (Ratio)
system.mem_ctrls.dram.bytesPerActivate::samples      6574043                       # Bytes accessed per row activation (Byte)
system.mem_ctrls.dram.bytesPerActivate::mean    81.614498                       # Bytes accessed per row activation (Byte)
system.mem_ctrls.dram.bytesPerActivate::gmean    71.813315                       # Bytes accessed per row activation (Byte)
system.mem_ctrls.dram.bytesPerActivate::stdev    65.003790                       # Bytes accessed per row activation (Byte)
system.mem_ctrls.dram.bytesPerActivate::0-63        53968      0.82%      0.82% # Bytes accessed per row activation (Byte)
system.mem_ctrls.dram.bytesPerActivate::64-127      5945750     90.44%     91.26% # Bytes accessed per row activation (Byte)
system.mem_ctrls.dram.bytesPerActivate::128-191        96427      1.47%     92.73% # Bytes accessed per row activation (Byte)
system.mem_ctrls.dram.bytesPerActivate::192-255       146713      2.23%     94.96% # Bytes accessed per row activation (Byte)
system.mem_ctrls.dram.bytesPerActivate::256-319       200086      3.04%     98.01% # Bytes accessed per row activation (Byte)
system.mem_ctrls.dram.bytesPerActivate::320-383        48565      0.74%     98.74% # Bytes accessed per row activation (Byte)
system.mem_ctrls.dram.bytesPerActivate::384-447        15546      0.24%     98.98% # Bytes accessed per row activation (Byte)
system.mem_ctrls.dram.bytesPerActivate::448-511        20890      0.32%     99.30% # Bytes accessed per row activation (Byte)
system.mem_ctrls.dram.bytesPerActivate::512-575        46098      0.70%    100.00% # Bytes accessed per row activation (Byte)
system.mem_ctrls.dram.bytesPerActivate::total      6574043                       # Bytes accessed per row activation (Byte)
system.mem_ctrls.dram.bytesRead             376442848                       # Total bytes read (Byte)
system.mem_ctrls.dram.bytesWritten          160094368                       # Total bytes written (Byte)
system.mem_ctrls.dram.avgRdBW             2585.257782                       # Average DRAM read bandwidth in MiBytes/s ((Byte/Second))
system.mem_ctrls.dram.avgWrBW             1099.463605                       # Average DRAM write bandwidth in MiBytes/s ((Byte/Second))
system.mem_ctrls.dram.peakBW                 16000.00                       # Theoretical peak bandwidth in MiByte/s ((Byte/Second))
system.mem_ctrls.dram.busUtil                   23.03                       # Data bus utilization in percentage (Ratio)
system.mem_ctrls.dram.busUtilRead               16.16                       # Data bus utilization in percentage for reads (Ratio)
system.mem_ctrls.dram.busUtilWrite               6.87                       # Data bus utilization in percentage for writes (Ratio)
system.mem_ctrls.dram.pageHitRate               60.79                       # Row buffer hit rate, read and write combined (Ratio)
system.mem_ctrls.dram.power_state.pwrStateResidencyTicks::UNDEFINED 145611339250                       # Cumulative time (in ticks) in various power states (Tick)
system.mem_ctrls.dram.rank0.actEnergy               0                       # Energy for activate commands per rank (pJ) (Joule)
system.mem_ctrls.dram.rank0.preEnergy               0                       # Energy for precharge commands per rank (pJ) (Joule)
system.mem_ctrls.dram.rank0.readEnergy              0                       # Energy for read commands per rank (pJ) (Joule)
system.mem_ctrls.dram.rank0.writeEnergy             0                       # Energy for write commands per rank (pJ) (Joule)
system.mem_ctrls.dram.rank0.refreshEnergy            0                       # Energy for refresh commands per rank (pJ) (Joule)
system.mem_ctrls.dram.rank0.actBackEnergy            0                       # Energy for active background per rank (pJ) (Joule)
system.mem_ctrls.dram.rank0.preBackEnergy            0                       # Energy for precharge background per rank (pJ) (Joule)
system.mem_ctrls.dram.rank0.actPowerDownEnergy            0                       # Energy for active power-down per rank (pJ) (Joule)
system.mem_ctrls.dram.rank0.prePowerDownEnergy            0                       # Energy for precharge power-down per rank (pJ) (Joule)
system.mem_ctrls.dram.rank0.selfRefreshEnergy            0                       # Energy for self refresh per rank (pJ) (Joule)
system.mem_ctrls.dram.rank0.totalEnergy             0                       # Total energy per rank (pJ) (Joule)
system.mem_ctrls.dram.rank0.averagePower            0                       # Core power per rank (mW) (Watt)
system.mem_ctrls.dram.rank0.totalIdleTime            0                       # Total Idle time Per DRAM Rank (Tick)
system.mem_ctrls.dram.rank0.pwrStateTime::IDLE  19129486750                       # Time in different power states (Tick)
system.mem_ctrls.dram.rank0.pwrStateTime::REF   8243400000                       # Time in different power states (Tick)
system.mem_ctrls.dram.rank0.pwrStateTime::SREF            0                       # Time in different power states (Tick)
system.mem_ctrls.dram.rank0.pwrStateTime::PRE_PDN            0                       # Time in different power states (Tick)
system.mem_ctrls.dram.rank0.pwrStateTime::ACT 118238452500                       # Time in different power states (Tick)
system.mem_ctrls.dram.rank0.pwrStateTime::ACT_PDN            0                       # Time in different power states (Tick)
system.mem_ctrls.power_state.pwrStateResidencyTicks::UNDEFINED 145611339250                       # Cumulative time (in ticks) in various power states (Tick)
system.membus.transDist::ReadResp             3505720                       # Transaction distribution (Count)
system.membus.transDist::WritebackDirty       2501490                       # Transaction distribution (Count)
system.membus.transDist::CleanEvict           3346135                       # Transaction distribution (Count)
system.membus.transDist::UpgradeReq                47                       # Transaction distribution (Count)
system.membus.transDist::ReadExReq            2376212                       # Transaction distribution (Count)
system.membus.transDist::ReadExResp           2376212                       # Transaction distribution (Count)
system.membus.transDist::ReadSharedReq        3505720                       # Transaction distribution (Count)
system.membus.pktCount_system.l2.mem_side_port::system.mem_ctrls.port     17611536                       # Packet count per connected requestor and responder (Count)
system.membus.pktCount_system.l2.mem_side_port::total     17611536                       # Packet count per connected requestor and responder (Count)
system.membus.pktCount::total                17611536                       # Packet count per connected requestor and responder (Count)
system.membus.pktSize_system.l2.mem_side_port::system.mem_ctrls.port    536539008                       # Cumulative packet size per connected requestor and responder (Byte)
system.membus.pktSize_system.l2.mem_side_port::total    536539008                       # Cumulative packet size per connected requestor and responder (Byte)
system.membus.pktSize::total                536539008                       # Cumulative packet size per connected requestor and responder (Byte)
system.membus.snoops                               47                       # Total snoops (Count)
system.membus.snoopTraffic                          0                       # Total snoop traffic (Byte)
system.membus.snoopFanout::samples            5881979                       # Request fanout histogram (Count)
system.membus.snoopFanout::mean                     0                       # Request fanout histogram (Count)
system.membus.snoopFanout::stdev                    0                       # Request fanout histogram (Count)
system.membus.snoopFanout::underflows               0      0.00%      0.00% # Request fanout histogram (Count)
system.membus.snoopFanout::0                  5881979    100.00%    100.00% # Request fanout histogram (Count)
system.membus.snoopFanout::1                        0      0.00%    100.00% # Request fanout histogram (Count)
system.membus.snoopFanout::overflows                0      0.00%    100.00% # Request fanout histogram (Count)
system.membus.snoopFanout::min_value                0                       # Request fanout histogram (Count)
system.membus.snoopFanout::max_value                0                       # Request fanout histogram (Count)
system.membus.snoopFanout::total              5881979                       # Request fanout histogram (Count)
system.membus.power_state.pwrStateResidencyTicks::UNDEFINED 145611339250                       # Cumulative time (in ticks) in various power states (Tick)
system.membus.reqLayer4.occupancy         22976356500                       # Layer occupancy (ticks) (Tick)
system.membus.reqLayer4.utilization               0.2                       # Layer utilization (Ratio)
system.membus.respLayer1.occupancy        29866347750                       # Layer occupancy (ticks) (Tick)
system.membus.respLayer1.utilization              0.2                       # Layer utilization (Ratio)
system.membus.snoop_filter.totRequests       11729604                       # Total number of requests made to the snoop filter. (Count)
system.membus.snoop_filter.hitSingleRequests      5848681                       # Number of requests hitting in the snoop filter with a single holder of the requested data. (Count)
system.membus.snoop_filter.hitMultiRequests            0                       # Number of requests hitting in the snoop filter with multiple (>1) holders of the requested data. (Count)
system.membus.snoop_filter.totSnoops                0                       # Total number of snoops made to the snoop filter. (Count)
system.membus.snoop_filter.hitSingleSnoops            0                       # Number of snoops hitting in the snoop filter with a single holder of the requested data. (Count)
system.membus.snoop_filter.hitMultiSnoops            0                       # Number of snoops hitting in the snoop filter with multiple (>1) holders of the requested data. (Count)
system.tol2bus.transDist::ReadResp            3508019                       # Transaction distribution (Count)
system.tol2bus.transDist::WritebackDirty      5003443                       # Transaction distribution (Count)
system.tol2bus.transDist::WritebackClean         2689                       # Transaction distribution (Count)
system.tol2bus.transDist::CleanEvict          6724922                       # Transaction distribution (Count)
system.tol2bus.transDist::UpgradeReq              117                       # Transaction distribution (Count)
system.tol2bus.transDist::UpgradeResp             117                       # Transaction distribution (Count)
system.tol2bus.transDist::ReadExReq           2376411                       # Transaction distribution (Count)
system.tol2bus.transDist::ReadExResp          2376411                       # Transaction distribution (Count)
system.tol2bus.transDist::ReadCleanReq           3348                       # Transaction distribution (Count)
system.tol2bus.transDist::ReadSharedReq       3504672                       # Transaction distribution (Count)
system.tol2bus.pktCount_system.cpu0.icache.mem_side_port::system.l2.cpu_side_port         9084                       # Packet count per connected requestor and responder (Count)
system.tol2bus.pktCount_system.cpu0.dcache.mem_side_port::system.l2.cpu_side_port      9390459                       # Packet count per connected requestor and responder (Count)
system.tol2bus.pktCount_system.cpu1.icache.mem_side_port::system.l2.cpu_side_port          280                       # Packet count per connected requestor and responder (Count)
system.tol2bus.pktCount_system.cpu1.dcache.mem_side_port::system.l2.cpu_side_port      8250289                       # Packet count per connected requestor and responder (Count)
system.tol2bus.pktCount::total               17650112                       # Packet count per connected requestor and responder (Count)
system.tol2bus.pktSize_system.cpu0.icache.mem_side_port::system.l2.cpu_side_port       376000                       # Cumulative packet size per connected requestor and responder (Byte)
system.tol2bus.pktSize_system.cpu0.dcache.mem_side_port::system.l2.cpu_side_port    280468800                       # Cumulative packet size per connected requestor and responder (Byte)
system.tol2bus.pktSize_system.cpu1.icache.mem_side_port::system.l2.cpu_side_port         9024                       # Cumulative packet size per connected requestor and responder (Byte)
system.tol2bus.pktSize_system.cpu1.dcache.mem_side_port::system.l2.cpu_side_port    256018176                       # Cumulative packet size per connected requestor and responder (Byte)
system.tol2bus.pktSize::total               536872000                       # Cumulative packet size per connected requestor and responder (Byte)
system.tol2bus.snoops                         5850037                       # Total snoops (Count)
system.tol2bus.snoopTraffic                 160123968                       # Total snoop traffic (Byte)
system.tol2bus.snoopFanout::samples          11734091                       # Request fanout histogram (Count)
system.tol2bus.snoopFanout::mean             0.000368                       # Request fanout histogram (Count)
system.tol2bus.snoopFanout::stdev            0.020040                       # Request fanout histogram (Count)
system.tol2bus.snoopFanout::underflows              0      0.00%      0.00% # Request fanout histogram (Count)
system.tol2bus.snoopFanout::0                11729974     99.96%     99.96% # Request fanout histogram (Count)
system.tol2bus.snoopFanout::1                    3918      0.03%    100.00% # Request fanout histogram (Count)
system.tol2bus.snoopFanout::2                     199      0.00%    100.00% # Request fanout histogram (Count)
system.tol2bus.snoopFanout::3                       0      0.00%    100.00% # Request fanout histogram (Count)
system.tol2bus.snoopFanout::4                       0      0.00%    100.00% # Request fanout histogram (Count)
system.tol2bus.snoopFanout::5                       0      0.00%    100.00% # Request fanout histogram (Count)
system.tol2bus.snoopFanout::6                       0      0.00%    100.00% # Request fanout histogram (Count)
system.tol2bus.snoopFanout::7                       0      0.00%    100.00% # Request fanout histogram (Count)
system.tol2bus.snoopFanout::8                       0      0.00%    100.00% # Request fanout histogram (Count)
system.tol2bus.snoopFanout::overflows               0      0.00%    100.00% # Request fanout histogram (Count)
system.tol2bus.snoopFanout::min_value               0                       # Request fanout histogram (Count)
system.tol2bus.snoopFanout::max_value               2                       # Request fanout histogram (Count)
system.tol2bus.snoopFanout::total            11734091                       # Request fanout histogram (Count)
system.tol2bus.power_state.pwrStateResidencyTicks::UNDEFINED 145611339250                       # Cumulative time (in ticks) in various power states (Tick)
system.tol2bus.reqLayer0.occupancy         4193835750                       # Layer occupancy (ticks) (Tick)
system.tol2bus.reqLayer0.utilization              0.0                       # Layer utilization (Ratio)
system.tol2bus.respLayer0.occupancy           2408988                       # Layer occupancy (ticks) (Tick)
system.tol2bus.respLayer0.utilization             0.0                       # Layer utilization (Ratio)
system.tol2bus.respLayer1.occupancy        2347927997                       # Layer occupancy (ticks) (Tick)
system.tol2bus.respLayer1.utilization             0.0                       # Layer utilization (Ratio)
system.tol2bus.respLayer4.occupancy            106740                       # Layer occupancy (ticks) (Tick)
system.tol2bus.respLayer4.utilization             0.0                       # Layer utilization (Ratio)
system.tol2bus.respLayer5.occupancy        2062914748                       # Layer occupancy (ticks) (Tick)
system.tol2bus.respLayer5.utilization             0.0                       # Layer utilization (Ratio)
system.tol2bus.snoop_filter.totRequests      11766059                       # Total number of requests made to the snoop filter. (Count)
system.tol2bus.snoop_filter.hitSingleRequests      5882479                       # Number of requests hitting in the snoop filter with a single holder of the requested data. (Count)
system.tol2bus.snoop_filter.hitMultiRequests         1103                       # Number of requests hitting in the snoop filter with multiple (>1) holders of the requested data. (Count)
system.tol2bus.snoop_filter.totSnoops            2090                       # Total number of snoops made to the snoop filter. (Count)
system.tol2bus.snoop_filter.hitSingleSnoops         1906                       # Number of snoops hitting in the snoop filter with a single holder of the requested data. (Count)
system.tol2bus.snoop_filter.hitMultiSnoops          184                       # Number of snoops hitting in the snoop filter with multiple (>1) holders of the requested data. (Count)
system.voltage_domain.voltage                       1                       # Voltage in Volts (Volt)
system.workload.inst.arm                            0                       # number of arm instructions executed (Count)
system.workload.inst.quiesce                        0                       # number of quiesce instructions executed (Count)

---------- End Simulation Statistics   ----------
