
---------- Begin Simulation Statistics ----------
simSeconds                                   0.541758                       # Number of seconds simulated (Second)
simTicks                                 541757816750                       # Number of ticks simulated (Tick)
finalTick                                541757816750                       # Number of ticks from beginning of simulation (restored from checkpoints and never reset) (Tick)
simFreq                                  1000000000000                       # The number of ticks per simulated second ((Tick/Second))
hostSeconds                                    199.45                       # Real time elapsed on the host (Second)
hostTickRate                               2716310353                       # The number of ticks simulated per host second (ticks/s) ((Tick/Second))
hostMemory                                     689668                       # Number of bytes of host memory used (Byte)
simInsts                                     89974407                       # Number of instructions simulated (Count)
simOps                                      167417670                       # Number of ops (including micro ops) simulated (Count)
hostInstRate                                   451121                       # Simulator instruction rate (inst/s) ((Count/Second))
hostOpRate                                     839412                       # Simulator op (including micro ops) rate (op/s) ((Count/Second))
system.clk_domain.clock                          1000                       # Clock period in ticks (Tick)
system.cpu.numCycles                       2167031267                       # Number of cpu cycles simulated (Cycle)
system.cpu.numWorkItemsStarted                      0                       # Number of work items this cpu started (Count)
system.cpu.numWorkItemsCompleted                    0                       # Number of work items this cpu completed (Count)
system.cpu.dcache.demandHits::cpu.data       49712205                       # number of demand (read+write) hits (Count)
system.cpu.dcache.demandHits::total          49712205                       # number of demand (read+write) hits (Count)
system.cpu.dcache.overallHits::cpu.data      50212195                       # number of overall hits (Count)
system.cpu.dcache.overallHits::total         50212195                       # number of overall hits (Count)
system.cpu.dcache.demandMisses::cpu.data      5378318                       # number of demand (read+write) misses (Count)
system.cpu.dcache.demandMisses::total         5378318                       # number of demand (read+write) misses (Count)
system.cpu.dcache.overallMisses::cpu.data      5878320                       # number of overall misses (Count)
system.cpu.dcache.overallMisses::total        5878320                       # number of overall misses (Count)
system.cpu.dcache.demandMissLatency::cpu.data 449218150000                       # number of demand (read+write) miss ticks (Tick)
system.cpu.dcache.demandMissLatency::total 449218150000                       # number of demand (read+write) miss ticks (Tick)
system.cpu.dcache.overallMissLatency::cpu.data 449218150000                       # number of overall miss ticks (Tick)
system.cpu.dcache.overallMissLatency::total 449218150000                       # number of overall miss ticks (Tick)
system.cpu.dcache.demandAccesses::cpu.data     55090523                       # number of demand (read+write) accesses (Count)
system.cpu.dcache.demandAccesses::total      55090523                       # number of demand (read+write) accesses (Count)
system.cpu.dcache.overallAccesses::cpu.data     56090515                       # number of overall (read+write) accesses (Count)
system.cpu.dcache.overallAccesses::total     56090515                       # number of overall (read+write) accesses (Count)
system.cpu.dcache.demandMissRate::cpu.data     0.097627                       # miss rate for demand accesses (Ratio)
system.cpu.dcache.demandMissRate::total      0.097627                       # miss rate for demand accesses (Ratio)
system.cpu.dcache.overallMissRate::cpu.data     0.104801                       # miss rate for overall accesses (Ratio)
system.cpu.dcache.overallMissRate::total     0.104801                       # miss rate for overall accesses (Ratio)
system.cpu.dcache.demandAvgMissLatency::cpu.data 83523.910263                       # average overall miss latency in ticks ((Tick/Count))
system.cpu.dcache.demandAvgMissLatency::total 83523.910263                       # average overall miss latency in ticks ((Tick/Count))
system.cpu.dcache.overallAvgMissLatency::cpu.data 76419.478695                       # average overall miss latency ((Tick/Count))
system.cpu.dcache.overallAvgMissLatency::total 76419.478695                       # average overall miss latency ((Tick/Count))
system.cpu.dcache.blockedCycles::no_mshrs            0                       # number of cycles access was blocked (Cycle)
system.cpu.dcache.blockedCycles::no_targets            0                       # number of cycles access was blocked (Cycle)
system.cpu.dcache.blockedCauses::no_mshrs            0                       # number of times access was blocked (Count)
system.cpu.dcache.blockedCauses::no_targets            0                       # number of times access was blocked (Count)
system.cpu.dcache.avgBlocked::no_mshrs            nan                       # average number of cycles each access was blocked ((Cycle/Count))
system.cpu.dcache.avgBlocked::no_targets          nan                       # average number of cycles each access was blocked ((Cycle/Count))
system.cpu.dcache.writebacks::writebacks      2500906                       # number of writebacks (Count)
system.cpu.dcache.writebacks::total           2500906                       # number of writebacks (Count)
system.cpu.dcache.demandMshrMisses::cpu.data      5378318                       # number of demand (read+write) MSHR misses (Count)
system.cpu.dcache.demandMshrMisses::total      5378318                       # number of demand (read+write) MSHR misses (Count)
system.cpu.dcache.overallMshrMisses::cpu.data      5878318                       # number of overall MSHR misses (Count)
system.cpu.dcache.overallMshrMisses::total      5878318                       # number of overall MSHR misses (Count)
system.cpu.dcache.demandMshrMissLatency::cpu.data 446528991000                       # number of demand (read+write) MSHR miss ticks (Tick)
system.cpu.dcache.demandMshrMissLatency::total 446528991000                       # number of demand (read+write) MSHR miss ticks (Tick)
system.cpu.dcache.overallMshrMissLatency::cpu.data 488235243000                       # number of overall MSHR miss ticks (Tick)
system.cpu.dcache.overallMshrMissLatency::total 488235243000                       # number of overall MSHR miss ticks (Tick)
system.cpu.dcache.demandMshrMissRate::cpu.data     0.097627                       # mshr miss ratio for demand accesses (Ratio)
system.cpu.dcache.demandMshrMissRate::total     0.097627                       # mshr miss ratio for demand accesses (Ratio)
system.cpu.dcache.overallMshrMissRate::cpu.data     0.104801                       # mshr miss ratio for overall accesses (Ratio)
system.cpu.dcache.overallMshrMissRate::total     0.104801                       # mshr miss ratio for overall accesses (Ratio)
system.cpu.dcache.demandAvgMshrMissLatency::cpu.data 83023.910263                       # average overall mshr miss latency ((Tick/Count))
system.cpu.dcache.demandAvgMshrMissLatency::total 83023.910263                       # average overall mshr miss latency ((Tick/Count))
system.cpu.dcache.overallAvgMshrMissLatency::cpu.data 83056.963403                       # average overall mshr miss latency ((Tick/Count))
system.cpu.dcache.overallAvgMshrMissLatency::total 83056.963403                       # average overall mshr miss latency ((Tick/Count))
system.cpu.dcache.replacements                5877294                       # number of replacements (Count)
system.cpu.dcache.ReadReq.hits::cpu.data     32062602                       # number of ReadReq hits (Count)
system.cpu.dcache.ReadReq.hits::total        32062602                       # number of ReadReq hits (Count)
system.cpu.dcache.ReadReq.misses::cpu.data      3002578                       # number of ReadReq misses (Count)
system.cpu.dcache.ReadReq.misses::total       3002578                       # number of ReadReq misses (Count)
system.cpu.dcache.ReadReq.missLatency::cpu.data 249425775500                       # number of ReadReq miss ticks (Tick)
system.cpu.dcache.ReadReq.missLatency::total 249425775500                       # number of ReadReq miss ticks (Tick)
system.cpu.dcache.ReadReq.accesses::cpu.data     35065180                       # number of ReadReq accesses(hits+misses) (Count)
system.cpu.dcache.ReadReq.accesses::total     35065180                       # number of ReadReq accesses(hits+misses) (Count)
system.cpu.dcache.ReadReq.missRate::cpu.data     0.085628                       # miss rate for ReadReq accesses (Ratio)
system.cpu.dcache.ReadReq.missRate::total     0.085628                       # miss rate for ReadReq accesses (Ratio)
system.cpu.dcache.ReadReq.avgMissLatency::cpu.data 83070.539883                       # average ReadReq miss latency ((Tick/Count))
system.cpu.dcache.ReadReq.avgMissLatency::total 83070.539883                       # average ReadReq miss latency ((Tick/Count))
system.cpu.dcache.ReadReq.mshrMisses::cpu.data      3002578                       # number of ReadReq MSHR misses (Count)
system.cpu.dcache.ReadReq.mshrMisses::total      3002578                       # number of ReadReq MSHR misses (Count)
system.cpu.dcache.ReadReq.mshrMissLatency::cpu.data 247924486500                       # number of ReadReq MSHR miss ticks (Tick)
system.cpu.dcache.ReadReq.mshrMissLatency::total 247924486500                       # number of ReadReq MSHR miss ticks (Tick)
system.cpu.dcache.ReadReq.mshrMissRate::cpu.data     0.085628                       # mshr miss rate for ReadReq accesses (Ratio)
system.cpu.dcache.ReadReq.mshrMissRate::total     0.085628                       # mshr miss rate for ReadReq accesses (Ratio)
system.cpu.dcache.ReadReq.avgMshrMissLatency::cpu.data 82570.539883                       # average ReadReq mshr miss latency ((Tick/Count))
system.cpu.dcache.ReadReq.avgMshrMissLatency::total 82570.539883                       # average ReadReq mshr miss latency ((Tick/Count))
system.cpu.dcache.SoftPFReq.hits::cpu.data       499990                       # number of SoftPFReq hits (Count)
system.cpu.dcache.SoftPFReq.hits::total        499990                       # number of SoftPFReq hits (Count)
system.cpu.dcache.SoftPFReq.misses::cpu.data       500002                       # number of SoftPFReq misses (Count)
system.cpu.dcache.SoftPFReq.misses::total       500002                       # number of SoftPFReq misses (Count)
system.cpu.dcache.SoftPFReq.accesses::cpu.data       999992                       # number of SoftPFReq accesses(hits+misses) (Count)
system.cpu.dcache.SoftPFReq.accesses::total       999992                       # number of SoftPFReq accesses(hits+misses) (Count)
system.cpu.dcache.SoftPFReq.missRate::cpu.data     0.500006                       # miss rate for SoftPFReq accesses (Ratio)
system.cpu.dcache.SoftPFReq.missRate::total     0.500006                       # miss rate for SoftPFReq accesses (Ratio)
system.cpu.dcache.SoftPFReq.mshrMisses::cpu.data       500000                       # number of SoftPFReq MSHR misses (Count)
system.cpu.dcache.SoftPFReq.mshrMisses::total       500000                       # number of SoftPFReq MSHR misses (Count)
system.cpu.dcache.SoftPFReq.mshrMissLatency::cpu.data  41706252000                       # number of SoftPFReq MSHR miss ticks (Tick)
system.cpu.dcache.SoftPFReq.mshrMissLatency::total  41706252000                       # number of SoftPFReq MSHR miss ticks (Tick)
system.cpu.dcache.SoftPFReq.mshrMissRate::cpu.data     0.500004                       # mshr miss rate for SoftPFReq accesses (Ratio)
system.cpu.dcache.SoftPFReq.mshrMissRate::total     0.500004                       # mshr miss rate for SoftPFReq accesses (Ratio)
system.cpu.dcache.SoftPFReq.avgMshrMissLatency::cpu.data 83412.504000                       # average SoftPFReq mshr miss latency ((Tick/Count))
system.cpu.dcache.SoftPFReq.avgMshrMissLatency::total 83412.504000                       # average SoftPFReq mshr miss latency ((Tick/Count))
system.cpu.dcache.WriteReq.hits::cpu.data     17649603                       # number of WriteReq hits (Count)
system.cpu.dcache.WriteReq.hits::total       17649603                       # number of WriteReq hits (Count)
system.cpu.dcache.WriteReq.misses::cpu.data      2375740                       # number of WriteReq misses (Count)
system.cpu.dcache.WriteReq.misses::total      2375740                       # number of WriteReq misses (Count)
system.cpu.dcache.WriteReq.missLatency::cpu.data 199792374500                       # number of WriteReq miss ticks (Tick)
system.cpu.dcache.WriteReq.missLatency::total 199792374500                       # number of WriteReq miss ticks (Tick)
system.cpu.dcache.WriteReq.accesses::cpu.data     20025343                       # number of WriteReq accesses(hits+misses) (Count)
system.cpu.dcache.WriteReq.accesses::total     20025343                       # number of WriteReq accesses(hits+misses) (Count)
system.cpu.dcache.WriteReq.missRate::cpu.data     0.118637                       # miss rate for WriteReq accesses (Ratio)
system.cpu.dcache.WriteReq.missRate::total     0.118637                       # miss rate for WriteReq accesses (Ratio)
system.cpu.dcache.WriteReq.avgMissLatency::cpu.data 84096.902228                       # average WriteReq miss latency ((Tick/Count))
system.cpu.dcache.WriteReq.avgMissLatency::total 84096.902228                       # average WriteReq miss latency ((Tick/Count))
system.cpu.dcache.WriteReq.mshrMisses::cpu.data      2375740                       # number of WriteReq MSHR misses (Count)
system.cpu.dcache.WriteReq.mshrMisses::total      2375740                       # number of WriteReq MSHR misses (Count)
system.cpu.dcache.WriteReq.mshrMissLatency::cpu.data 198604504500                       # number of WriteReq MSHR miss ticks (Tick)
system.cpu.dcache.WriteReq.mshrMissLatency::total 198604504500                       # number of WriteReq MSHR miss ticks (Tick)
system.cpu.dcache.WriteReq.mshrMissRate::cpu.data     0.118637                       # mshr miss rate for WriteReq accesses (Ratio)
system.cpu.dcache.WriteReq.mshrMissRate::total     0.118637                       # mshr miss rate for WriteReq accesses (Ratio)
system.cpu.dcache.WriteReq.avgMshrMissLatency::cpu.data 83596.902228                       # average WriteReq mshr miss latency ((Tick/Count))
system.cpu.dcache.WriteReq.avgMshrMissLatency::total 83596.902228                       # average WriteReq mshr miss latency ((Tick/Count))
system.cpu.dcache.power_state.pwrStateResidencyTicks::UNDEFINED 541757816750                       # Cumulative time (in ticks) in various power states (Tick)
system.cpu.dcache.tags.tagsInUse          1023.807845                       # Average ticks per tags in use ((Tick/Count))
system.cpu.dcache.tags.totalRefs             56090513                       # Total number of references to valid blocks. (Count)
system.cpu.dcache.tags.sampledRefs            5878318                       # Sample count of references to valid blocks. (Count)
system.cpu.dcache.tags.avgRefs               9.541932                       # Average number of references to valid blocks. ((Count/Count))
system.cpu.dcache.tags.warmupTick              162250                       # The tick when the warmup percentage was hit. (Tick)
system.cpu.dcache.tags.occupancies::cpu.data  1023.807845                       # Average occupied blocks per tick, per requestor ((Count/Tick))
system.cpu.dcache.tags.avgOccs::cpu.data     0.999812                       # Average percentage of cache occupancy ((Ratio/Tick))
system.cpu.dcache.tags.avgOccs::total        0.999812                       # Average percentage of cache occupancy ((Ratio/Tick))
system.cpu.dcache.tags.occupanciesTaskId::1024         1024                       # Occupied blocks per task id (Count)
system.cpu.dcache.tags.ageTaskId_1024::0           42                       # Occupied blocks per task id, per block age (Count)
system.cpu.dcache.tags.ageTaskId_1024::1          604                       # Occupied blocks per task id, per block age (Count)
system.cpu.dcache.tags.ageTaskId_1024::2          377                       # Occupied blocks per task id, per block age (Count)
system.cpu.dcache.tags.ageTaskId_1024::4            1                       # Occupied blocks per task id, per block age (Count)
system.cpu.dcache.tags.ratioOccsTaskId::1024            1                       # Ratio of occupied blocks and all blocks, per task id (Ratio)
system.cpu.dcache.tags.tagAccesses          118059348                       # Number of tag accesses (Count)
system.cpu.dcache.tags.dataAccesses         118059348                       # Number of data accesses (Count)
system.cpu.dcache.tags.power_state.pwrStateResidencyTicks::UNDEFINED 541757816750                       # Cumulative time (in ticks) in various power states (Tick)
system.cpu.dtb_walker_cache.blockedCycles::no_mshrs            0                       # number of cycles access was blocked (Cycle)
system.cpu.dtb_walker_cache.blockedCycles::no_targets            0                       # number of cycles access was blocked (Cycle)
system.cpu.dtb_walker_cache.blockedCauses::no_mshrs            0                       # number of times access was blocked (Count)
system.cpu.dtb_walker_cache.blockedCauses::no_targets            0                       # number of times access was blocked (Count)
system.cpu.dtb_walker_cache.avgBlocked::no_mshrs          nan                       # average number of cycles each access was blocked ((Cycle/Count))
system.cpu.dtb_walker_cache.avgBlocked::no_targets          nan                       # average number of cycles each access was blocked ((Cycle/Count))
system.cpu.dtb_walker_cache.replacements            0                       # number of replacements (Count)
system.cpu.dtb_walker_cache.power_state.pwrStateResidencyTicks::UNDEFINED 541757816750                       # Cumulative time (in ticks) in various power states (Tick)
system.cpu.dtb_walker_cache.tags.tagsInUse            0                       # Average ticks per tags in use ((Tick/Count))
system.cpu.dtb_walker_cache.tags.totalRefs            0                       # Total number of references to valid blocks. (Count)
system.cpu.dtb_walker_cache.tags.sampledRefs            0                       # Sample count of references to valid blocks. (Count)
system.cpu.dtb_walker_cache.tags.avgRefs          nan                       # Average number of references to valid blocks. ((Count/Count))
system.cpu.dtb_walker_cache.tags.warmupTick            0                       # The tick when the warmup percentage was hit. (Tick)
system.cpu.dtb_walker_cache.tags.tagAccesses            0                       # Number of tag accesses (Count)
system.cpu.dtb_walker_cache.tags.dataAccesses            0                       # Number of data accesses (Count)
system.cpu.dtb_walker_cache.tags.power_state.pwrStateResidencyTicks::UNDEFINED 541757816750                       # Cumulative time (in ticks) in various power states (Tick)
system.cpu.exec_context.thread_0.numInsts     89974407                       # Number of instructions committed (Count)
system.cpu.exec_context.thread_0.numOps     167417670                       # Number of ops (including micro ops) committed (Count)
system.cpu.exec_context.thread_0.numIntAluAccesses    121394832                       # Number of integer alu accesses (Count)
system.cpu.exec_context.thread_0.numFpAluAccesses    100025518                       # Number of float alu accesses (Count)
system.cpu.exec_context.thread_0.numVecAluAccesses            0                       # Number of vector alu accesses (Count)
system.cpu.exec_context.thread_0.numCallsReturns         7294                       # Number of times a function call or return occured (Count)
system.cpu.exec_context.thread_0.numCondCtrlInsts      8947822                       # Number of instructions that are conditional controls (Count)
system.cpu.exec_context.thread_0.numIntInsts    121394832                       # Number of integer instructions (Count)
system.cpu.exec_context.thread_0.numFpInsts    100025518                       # Number of float instructions (Count)
system.cpu.exec_context.thread_0.numVecInsts            0                       # Number of vector instructions (Count)
system.cpu.exec_context.thread_0.numIntRegReads    120029597                       # Number of times the integer registers were read (Count)
system.cpu.exec_context.thread_0.numIntRegWrites     48460572                       # Number of times the integer registers were written (Count)
system.cpu.exec_context.thread_0.numFpRegReads    110037344                       # Number of times the floating registers were read (Count)
system.cpu.exec_context.thread_0.numFpRegWrites     78022083                       # Number of times the floating registers were written (Count)
system.cpu.exec_context.thread_0.numVecRegReads            0                       # Number of times the vector registers were read (Count)
system.cpu.exec_context.thread_0.numVecRegWrites            0                       # Number of times the vector registers were written (Count)
system.cpu.exec_context.thread_0.numVecPredRegReads            0                       # Number of times the predicate registers were read (Count)
system.cpu.exec_context.thread_0.numVecPredRegWrites            0                       # Number of times the predicate registers were written (Count)
system.cpu.exec_context.thread_0.numCCRegReads     50800102                       # Number of times the CC registers were read (Count)
system.cpu.exec_context.thread_0.numCCRegWrites     39785475                       # Number of times the CC registers were written (Count)
system.cpu.exec_context.thread_0.numMiscRegReads     80013998                       # Number of times the Misc registers were read (Count)
system.cpu.exec_context.thread_0.numMiscRegWrites           18                       # Number of times the Misc registers were written (Count)
system.cpu.exec_context.thread_0.numMemRefs     58090499                       # Number of memory refs (Count)
system.cpu.exec_context.thread_0.numLoadInsts     36065183                       # Number of load instructions (Count)
system.cpu.exec_context.thread_0.numStoreInsts     22025316                       # Number of store instructions (Count)
system.cpu.exec_context.thread_0.numIdleCycles     0.004000                       # Number of idle cycles (Cycle)
system.cpu.exec_context.thread_0.numBusyCycles 2167031266.996000                       # Number of busy cycles (Cycle)
system.cpu.exec_context.thread_0.notIdleFraction     1.000000                       # Percentage of non-idle cycles (Ratio)
system.cpu.exec_context.thread_0.idleFraction     0.000000                       # Percentage of idle cycles (Ratio)
system.cpu.exec_context.thread_0.numBranches      8962602                       # Number of branches fetched (Count)
system.cpu.exec_context.thread_0.statExecutedInstType::No_OpClass      2005352      1.18%      1.18% # Class of executed instruction. (Count)
system.cpu.exec_context.thread_0.statExecutedInstType::IntAlu     71305738     42.09%     43.27% # Class of executed instruction. (Count)
system.cpu.exec_context.thread_0.statExecutedInstType::IntMult          202      0.00%     43.27% # Class of executed instruction. (Count)
system.cpu.exec_context.thread_0.statExecutedInstType::IntDiv         1591      0.00%     43.27% # Class of executed instruction. (Count)
system.cpu.exec_context.thread_0.statExecutedInstType::FloatAdd     12001421      7.08%     50.36% # Class of executed instruction. (Count)
system.cpu.exec_context.thread_0.statExecutedInstType::FloatCmp            0      0.00%     50.36% # Class of executed instruction. (Count)
system.cpu.exec_context.thread_0.statExecutedInstType::FloatCvt           32      0.00%     50.36% # Class of executed instruction. (Count)
system.cpu.exec_context.thread_0.statExecutedInstType::FloatMult            0      0.00%     50.36% # Class of executed instruction. (Count)
system.cpu.exec_context.thread_0.statExecutedInstType::FloatMultAcc            0      0.00%     50.36% # Class of executed instruction. (Count)
system.cpu.exec_context.thread_0.statExecutedInstType::FloatDiv            0      0.00%     50.36% # Class of executed instruction. (Count)
system.cpu.exec_context.thread_0.statExecutedInstType::FloatMisc            0      0.00%     50.36% # Class of executed instruction. (Count)
system.cpu.exec_context.thread_0.statExecutedInstType::FloatSqrt            0      0.00%     50.36% # Class of executed instruction. (Count)
system.cpu.exec_context.thread_0.statExecutedInstType::SimdAdd          340      0.00%     50.36% # Class of executed instruction. (Count)
system.cpu.exec_context.thread_0.statExecutedInstType::SimdAddAcc            0      0.00%     50.36% # Class of executed instruction. (Count)
system.cpu.exec_context.thread_0.statExecutedInstType::SimdAlu         4995      0.00%     50.36% # Class of executed instruction. (Count)
system.cpu.exec_context.thread_0.statExecutedInstType::SimdCmp            6      0.00%     50.36% # Class of executed instruction. (Count)
system.cpu.exec_context.thread_0.statExecutedInstType::SimdCvt         1234      0.00%     50.36% # Class of executed instruction. (Count)
system.cpu.exec_context.thread_0.statExecutedInstType::SimdMisc         1575      0.00%     50.36% # Class of executed instruction. (Count)
system.cpu.exec_context.thread_0.statExecutedInstType::SimdMult            0      0.00%     50.36% # Class of executed instruction. (Count)
system.cpu.exec_context.thread_0.statExecutedInstType::SimdMultAcc            0      0.00%     50.36% # Class of executed instruction. (Count)
system.cpu.exec_context.thread_0.statExecutedInstType::SimdShift           99      0.00%     50.36% # Class of executed instruction. (Count)
system.cpu.exec_context.thread_0.statExecutedInstType::SimdShiftAcc            0      0.00%     50.36% # Class of executed instruction. (Count)
system.cpu.exec_context.thread_0.statExecutedInstType::SimdDiv            0      0.00%     50.36% # Class of executed instruction. (Count)
system.cpu.exec_context.thread_0.statExecutedInstType::SimdSqrt            0      0.00%     50.36% # Class of executed instruction. (Count)
system.cpu.exec_context.thread_0.statExecutedInstType::SimdFloatAdd     15001844      8.85%     59.22% # Class of executed instruction. (Count)
system.cpu.exec_context.thread_0.statExecutedInstType::SimdFloatAlu            0      0.00%     59.22% # Class of executed instruction. (Count)
system.cpu.exec_context.thread_0.statExecutedInstType::SimdFloatCmp           24      0.00%     59.22% # Class of executed instruction. (Count)
system.cpu.exec_context.thread_0.statExecutedInstType::SimdFloatCvt      3002779      1.77%     60.99% # Class of executed instruction. (Count)
system.cpu.exec_context.thread_0.statExecutedInstType::SimdFloatDiv           15      0.00%     60.99% # Class of executed instruction. (Count)
system.cpu.exec_context.thread_0.statExecutedInstType::SimdFloatMisc            0      0.00%     60.99% # Class of executed instruction. (Count)
system.cpu.exec_context.thread_0.statExecutedInstType::SimdFloatMult      8000953      4.72%     65.71% # Class of executed instruction. (Count)
system.cpu.exec_context.thread_0.statExecutedInstType::SimdFloatMultAcc            0      0.00%     65.71% # Class of executed instruction. (Count)
system.cpu.exec_context.thread_0.statExecutedInstType::SimdFloatSqrt            0      0.00%     65.71% # Class of executed instruction. (Count)
system.cpu.exec_context.thread_0.statExecutedInstType::SimdReduceAdd            0      0.00%     65.71% # Class of executed instruction. (Count)
system.cpu.exec_context.thread_0.statExecutedInstType::SimdReduceAlu            0      0.00%     65.71% # Class of executed instruction. (Count)
system.cpu.exec_context.thread_0.statExecutedInstType::SimdReduceCmp            0      0.00%     65.71% # Class of executed instruction. (Count)
system.cpu.exec_context.thread_0.statExecutedInstType::SimdFloatReduceAdd            0      0.00%     65.71% # Class of executed instruction. (Count)
system.cpu.exec_context.thread_0.statExecutedInstType::SimdFloatReduceCmp            0      0.00%     65.71% # Class of executed instruction. (Count)
system.cpu.exec_context.thread_0.statExecutedInstType::SimdAes            0      0.00%     65.71% # Class of executed instruction. (Count)
system.cpu.exec_context.thread_0.statExecutedInstType::SimdAesMix            0      0.00%     65.71% # Class of executed instruction. (Count)
system.cpu.exec_context.thread_0.statExecutedInstType::SimdSha1Hash            0      0.00%     65.71% # Class of executed instruction. (Count)
system.cpu.exec_context.thread_0.statExecutedInstType::SimdSha1Hash2            0      0.00%     65.71% # Class of executed instruction. (Count)
system.cpu.exec_context.thread_0.statExecutedInstType::SimdSha256Hash            0      0.00%     65.71% # Class of executed instruction. (Count)
system.cpu.exec_context.thread_0.statExecutedInstType::SimdSha256Hash2            0      0.00%     65.71% # Class of executed instruction. (Count)
system.cpu.exec_context.thread_0.statExecutedInstType::SimdShaSigma2            0      0.00%     65.71% # Class of executed instruction. (Count)
system.cpu.exec_context.thread_0.statExecutedInstType::SimdShaSigma3            0      0.00%     65.71% # Class of executed instruction. (Count)
system.cpu.exec_context.thread_0.statExecutedInstType::SimdPredAlu            0      0.00%     65.71% # Class of executed instruction. (Count)
system.cpu.exec_context.thread_0.statExecutedInstType::MemRead      1058936      0.63%     66.34% # Class of executed instruction. (Count)
system.cpu.exec_context.thread_0.statExecutedInstType::MemWrite      3023659      1.78%     68.12% # Class of executed instruction. (Count)
system.cpu.exec_context.thread_0.statExecutedInstType::FloatMemRead     35006247     20.66%     88.78% # Class of executed instruction. (Count)
system.cpu.exec_context.thread_0.statExecutedInstType::FloatMemWrite     19001657     11.22%    100.00% # Class of executed instruction. (Count)
system.cpu.exec_context.thread_0.statExecutedInstType::IprAccess            0      0.00%    100.00% # Class of executed instruction. (Count)
system.cpu.exec_context.thread_0.statExecutedInstType::InstPrefetch            0      0.00%    100.00% # Class of executed instruction. (Count)
system.cpu.exec_context.thread_0.statExecutedInstType::total    169418699                       # Class of executed instruction. (Count)
system.cpu.icache.demandHits::cpu.inst      134158502                       # number of demand (read+write) hits (Count)
system.cpu.icache.demandHits::total         134158502                       # number of demand (read+write) hits (Count)
system.cpu.icache.overallHits::cpu.inst     134158502                       # number of overall hits (Count)
system.cpu.icache.overallHits::total        134158502                       # number of overall hits (Count)
system.cpu.icache.demandMisses::cpu.inst         1611                       # number of demand (read+write) misses (Count)
system.cpu.icache.demandMisses::total            1611                       # number of demand (read+write) misses (Count)
system.cpu.icache.overallMisses::cpu.inst         1611                       # number of overall misses (Count)
system.cpu.icache.overallMisses::total           1611                       # number of overall misses (Count)
system.cpu.icache.demandMissLatency::cpu.inst    104564000                       # number of demand (read+write) miss ticks (Tick)
system.cpu.icache.demandMissLatency::total    104564000                       # number of demand (read+write) miss ticks (Tick)
system.cpu.icache.overallMissLatency::cpu.inst    104564000                       # number of overall miss ticks (Tick)
system.cpu.icache.overallMissLatency::total    104564000                       # number of overall miss ticks (Tick)
system.cpu.icache.demandAccesses::cpu.inst    134160113                       # number of demand (read+write) accesses (Count)
system.cpu.icache.demandAccesses::total     134160113                       # number of demand (read+write) accesses (Count)
system.cpu.icache.overallAccesses::cpu.inst    134160113                       # number of overall (read+write) accesses (Count)
system.cpu.icache.overallAccesses::total    134160113                       # number of overall (read+write) accesses (Count)
system.cpu.icache.demandMissRate::cpu.inst     0.000012                       # miss rate for demand accesses (Ratio)
system.cpu.icache.demandMissRate::total      0.000012                       # miss rate for demand accesses (Ratio)
system.cpu.icache.overallMissRate::cpu.inst     0.000012                       # miss rate for overall accesses (Ratio)
system.cpu.icache.overallMissRate::total     0.000012                       # miss rate for overall accesses (Ratio)
system.cpu.icache.demandAvgMissLatency::cpu.inst 64906.269398                       # average overall miss latency in ticks ((Tick/Count))
system.cpu.icache.demandAvgMissLatency::total 64906.269398                       # average overall miss latency in ticks ((Tick/Count))
system.cpu.icache.overallAvgMissLatency::cpu.inst 64906.269398                       # average overall miss latency ((Tick/Count))
system.cpu.icache.overallAvgMissLatency::total 64906.269398                       # average overall miss latency ((Tick/Count))
system.cpu.icache.blockedCycles::no_mshrs            0                       # number of cycles access was blocked (Cycle)
system.cpu.icache.blockedCycles::no_targets            0                       # number of cycles access was blocked (Cycle)
system.cpu.icache.blockedCauses::no_mshrs            0                       # number of times access was blocked (Count)
system.cpu.icache.blockedCauses::no_targets            0                       # number of times access was blocked (Count)
system.cpu.icache.avgBlocked::no_mshrs            nan                       # average number of cycles each access was blocked ((Cycle/Count))
system.cpu.icache.avgBlocked::no_targets          nan                       # average number of cycles each access was blocked ((Cycle/Count))
system.cpu.icache.writebacks::writebacks         1109                       # number of writebacks (Count)
system.cpu.icache.writebacks::total              1109                       # number of writebacks (Count)
system.cpu.icache.demandMshrMisses::cpu.inst         1611                       # number of demand (read+write) MSHR misses (Count)
system.cpu.icache.demandMshrMisses::total         1611                       # number of demand (read+write) MSHR misses (Count)
system.cpu.icache.overallMshrMisses::cpu.inst         1611                       # number of overall MSHR misses (Count)
system.cpu.icache.overallMshrMisses::total         1611                       # number of overall MSHR misses (Count)
system.cpu.icache.demandMshrMissLatency::cpu.inst    103758500                       # number of demand (read+write) MSHR miss ticks (Tick)
system.cpu.icache.demandMshrMissLatency::total    103758500                       # number of demand (read+write) MSHR miss ticks (Tick)
system.cpu.icache.overallMshrMissLatency::cpu.inst    103758500                       # number of overall MSHR miss ticks (Tick)
system.cpu.icache.overallMshrMissLatency::total    103758500                       # number of overall MSHR miss ticks (Tick)
system.cpu.icache.demandMshrMissRate::cpu.inst     0.000012                       # mshr miss ratio for demand accesses (Ratio)
system.cpu.icache.demandMshrMissRate::total     0.000012                       # mshr miss ratio for demand accesses (Ratio)
system.cpu.icache.overallMshrMissRate::cpu.inst     0.000012                       # mshr miss ratio for overall accesses (Ratio)
system.cpu.icache.overallMshrMissRate::total     0.000012                       # mshr miss ratio for overall accesses (Ratio)
system.cpu.icache.demandAvgMshrMissLatency::cpu.inst 64406.269398                       # average overall mshr miss latency ((Tick/Count))
system.cpu.icache.demandAvgMshrMissLatency::total 64406.269398                       # average overall mshr miss latency ((Tick/Count))
system.cpu.icache.overallAvgMshrMissLatency::cpu.inst 64406.269398                       # average overall mshr miss latency ((Tick/Count))
system.cpu.icache.overallAvgMshrMissLatency::total 64406.269398                       # average overall mshr miss latency ((Tick/Count))
system.cpu.icache.replacements                   1109                       # number of replacements (Count)
system.cpu.icache.ReadReq.hits::cpu.inst    134158502                       # number of ReadReq hits (Count)
system.cpu.icache.ReadReq.hits::total       134158502                       # number of ReadReq hits (Count)
system.cpu.icache.ReadReq.misses::cpu.inst         1611                       # number of ReadReq misses (Count)
system.cpu.icache.ReadReq.misses::total          1611                       # number of ReadReq misses (Count)
system.cpu.icache.ReadReq.missLatency::cpu.inst    104564000                       # number of ReadReq miss ticks (Tick)
system.cpu.icache.ReadReq.missLatency::total    104564000                       # number of ReadReq miss ticks (Tick)
system.cpu.icache.ReadReq.accesses::cpu.inst    134160113                       # number of ReadReq accesses(hits+misses) (Count)
system.cpu.icache.ReadReq.accesses::total    134160113                       # number of ReadReq accesses(hits+misses) (Count)
system.cpu.icache.ReadReq.missRate::cpu.inst     0.000012                       # miss rate for ReadReq accesses (Ratio)
system.cpu.icache.ReadReq.missRate::total     0.000012                       # miss rate for ReadReq accesses (Ratio)
system.cpu.icache.ReadReq.avgMissLatency::cpu.inst 64906.269398                       # average ReadReq miss latency ((Tick/Count))
system.cpu.icache.ReadReq.avgMissLatency::total 64906.269398                       # average ReadReq miss latency ((Tick/Count))
system.cpu.icache.ReadReq.mshrMisses::cpu.inst         1611                       # number of ReadReq MSHR misses (Count)
system.cpu.icache.ReadReq.mshrMisses::total         1611                       # number of ReadReq MSHR misses (Count)
system.cpu.icache.ReadReq.mshrMissLatency::cpu.inst    103758500                       # number of ReadReq MSHR miss ticks (Tick)
system.cpu.icache.ReadReq.mshrMissLatency::total    103758500                       # number of ReadReq MSHR miss ticks (Tick)
system.cpu.icache.ReadReq.mshrMissRate::cpu.inst     0.000012                       # mshr miss rate for ReadReq accesses (Ratio)
system.cpu.icache.ReadReq.mshrMissRate::total     0.000012                       # mshr miss rate for ReadReq accesses (Ratio)
system.cpu.icache.ReadReq.avgMshrMissLatency::cpu.inst 64406.269398                       # average ReadReq mshr miss latency ((Tick/Count))
system.cpu.icache.ReadReq.avgMshrMissLatency::total 64406.269398                       # average ReadReq mshr miss latency ((Tick/Count))
system.cpu.icache.power_state.pwrStateResidencyTicks::UNDEFINED 541757816750                       # Cumulative time (in ticks) in various power states (Tick)
system.cpu.icache.tags.tagsInUse           495.215442                       # Average ticks per tags in use ((Tick/Count))
system.cpu.icache.tags.totalRefs            134160113                       # Total number of references to valid blocks. (Count)
system.cpu.icache.tags.sampledRefs               1611                       # Sample count of references to valid blocks. (Count)
system.cpu.icache.tags.avgRefs           83277.537554                       # Average number of references to valid blocks. ((Count/Count))
system.cpu.icache.tags.warmupTick               85250                       # The tick when the warmup percentage was hit. (Tick)
system.cpu.icache.tags.occupancies::cpu.inst   495.215442                       # Average occupied blocks per tick, per requestor ((Count/Tick))
system.cpu.icache.tags.avgOccs::cpu.inst     0.967218                       # Average percentage of cache occupancy ((Ratio/Tick))
system.cpu.icache.tags.avgOccs::total        0.967218                       # Average percentage of cache occupancy ((Ratio/Tick))
system.cpu.icache.tags.occupanciesTaskId::1024          502                       # Occupied blocks per task id (Count)
system.cpu.icache.tags.ageTaskId_1024::0           71                       # Occupied blocks per task id, per block age (Count)
system.cpu.icache.tags.ageTaskId_1024::1           35                       # Occupied blocks per task id, per block age (Count)
system.cpu.icache.tags.ageTaskId_1024::4          396                       # Occupied blocks per task id, per block age (Count)
system.cpu.icache.tags.ratioOccsTaskId::1024     0.980469                       # Ratio of occupied blocks and all blocks, per task id (Ratio)
system.cpu.icache.tags.tagAccesses          268321837                       # Number of tag accesses (Count)
system.cpu.icache.tags.dataAccesses         268321837                       # Number of data accesses (Count)
system.cpu.icache.tags.power_state.pwrStateResidencyTicks::UNDEFINED 541757816750                       # Cumulative time (in ticks) in various power states (Tick)
system.cpu.interrupts.clk_domain.clock           4000                       # Clock period in ticks (Tick)
system.cpu.itb_walker_cache.blockedCycles::no_mshrs            0                       # number of cycles access was blocked (Cycle)
system.cpu.itb_walker_cache.blockedCycles::no_targets            0                       # number of cycles access was blocked (Cycle)
system.cpu.itb_walker_cache.blockedCauses::no_mshrs            0                       # number of times access was blocked (Count)
system.cpu.itb_walker_cache.blockedCauses::no_targets            0                       # number of times access was blocked (Count)
system.cpu.itb_walker_cache.avgBlocked::no_mshrs          nan                       # average number of cycles each access was blocked ((Cycle/Count))
system.cpu.itb_walker_cache.avgBlocked::no_targets          nan                       # average number of cycles each access was blocked ((Cycle/Count))
system.cpu.itb_walker_cache.replacements            0                       # number of replacements (Count)
system.cpu.itb_walker_cache.power_state.pwrStateResidencyTicks::UNDEFINED 541757816750                       # Cumulative time (in ticks) in various power states (Tick)
system.cpu.itb_walker_cache.tags.tagsInUse            0                       # Average ticks per tags in use ((Tick/Count))
system.cpu.itb_walker_cache.tags.totalRefs            0                       # Total number of references to valid blocks. (Count)
system.cpu.itb_walker_cache.tags.sampledRefs            0                       # Sample count of references to valid blocks. (Count)
system.cpu.itb_walker_cache.tags.avgRefs          nan                       # Average number of references to valid blocks. ((Count/Count))
system.cpu.itb_walker_cache.tags.warmupTick            0                       # The tick when the warmup percentage was hit. (Tick)
system.cpu.itb_walker_cache.tags.tagAccesses            0                       # Number of tag accesses (Count)
system.cpu.itb_walker_cache.tags.dataAccesses            0                       # Number of data accesses (Count)
system.cpu.itb_walker_cache.tags.power_state.pwrStateResidencyTicks::UNDEFINED 541757816750                       # Cumulative time (in ticks) in various power states (Tick)
system.cpu.mmu.dtb.rdAccesses                36065222                       # TLB accesses on read requests (Count)
system.cpu.mmu.dtb.wrAccesses                22025338                       # TLB accesses on write requests (Count)
system.cpu.mmu.dtb.rdMisses                     54955                       # TLB misses on read requests (Count)
system.cpu.mmu.dtb.wrMisses                     37170                       # TLB misses on write requests (Count)
system.cpu.mmu.dtb.walker.power_state.pwrStateResidencyTicks::UNDEFINED 541757816750                       # Cumulative time (in ticks) in various power states (Tick)
system.cpu.mmu.itb.rdAccesses                       0                       # TLB accesses on read requests (Count)
system.cpu.mmu.itb.wrAccesses               134160163                       # TLB accesses on write requests (Count)
system.cpu.mmu.itb.rdMisses                         0                       # TLB misses on read requests (Count)
system.cpu.mmu.itb.wrMisses                       175                       # TLB misses on write requests (Count)
system.cpu.mmu.itb.walker.power_state.pwrStateResidencyTicks::UNDEFINED 541757816750                       # Cumulative time (in ticks) in various power states (Tick)
system.cpu.power_state.pwrStateResidencyTicks::ON 541757816750                       # Cumulative time (in ticks) in various power states (Tick)
system.cpu.thread_0.numInsts                        0                       # Number of Instructions committed (Count)
system.cpu.thread_0.numOps                          0                       # Number of Ops committed (Count)
system.cpu.thread_0.numMemRefs                      0                       # Number of Memory References (Count)
system.cpu.workload.numSyscalls                   984                       # Number of system calls (Count)
system.cpu_clk_domain.clock                       250                       # Clock period in ticks (Tick)
system.cpu_voltage_domain.voltage                   1                       # Voltage in Volts (Volt)
system.l2.demandHits::cpu.inst                    343                       # number of demand (read+write) hits (Count)
system.l2.demandHits::cpu.data                    296                       # number of demand (read+write) hits (Count)
system.l2.demandHits::total                       639                       # number of demand (read+write) hits (Count)
system.l2.overallHits::cpu.inst                   343                       # number of overall hits (Count)
system.l2.overallHits::cpu.data                   296                       # number of overall hits (Count)
system.l2.overallHits::total                      639                       # number of overall hits (Count)
system.l2.demandMisses::cpu.inst                 1268                       # number of demand (read+write) misses (Count)
system.l2.demandMisses::cpu.data              5878022                       # number of demand (read+write) misses (Count)
system.l2.demandMisses::total                 5879290                       # number of demand (read+write) misses (Count)
system.l2.overallMisses::cpu.inst                1268                       # number of overall misses (Count)
system.l2.overallMisses::cpu.data             5878022                       # number of overall misses (Count)
system.l2.overallMisses::total                5879290                       # number of overall misses (Count)
system.l2.demandMissLatency::cpu.inst       100745500                       # number of demand (read+write) miss ticks (Tick)
system.l2.demandMissLatency::cpu.data    483824946000                       # number of demand (read+write) miss ticks (Tick)
system.l2.demandMissLatency::total       483925691500                       # number of demand (read+write) miss ticks (Tick)
system.l2.overallMissLatency::cpu.inst      100745500                       # number of overall miss ticks (Tick)
system.l2.overallMissLatency::cpu.data   483824946000                       # number of overall miss ticks (Tick)
system.l2.overallMissLatency::total      483925691500                       # number of overall miss ticks (Tick)
system.l2.demandAccesses::cpu.inst               1611                       # number of demand (read+write) accesses (Count)
system.l2.demandAccesses::cpu.data            5878318                       # number of demand (read+write) accesses (Count)
system.l2.demandAccesses::total               5879929                       # number of demand (read+write) accesses (Count)
system.l2.overallAccesses::cpu.inst              1611                       # number of overall (read+write) accesses (Count)
system.l2.overallAccesses::cpu.data           5878318                       # number of overall (read+write) accesses (Count)
system.l2.overallAccesses::total              5879929                       # number of overall (read+write) accesses (Count)
system.l2.demandMissRate::cpu.inst           0.787089                       # miss rate for demand accesses (Ratio)
system.l2.demandMissRate::cpu.data           0.999950                       # miss rate for demand accesses (Ratio)
system.l2.demandMissRate::total              0.999891                       # miss rate for demand accesses (Ratio)
system.l2.overallMissRate::cpu.inst          0.787089                       # miss rate for overall accesses (Ratio)
system.l2.overallMissRate::cpu.data          0.999950                       # miss rate for overall accesses (Ratio)
system.l2.overallMissRate::total             0.999891                       # miss rate for overall accesses (Ratio)
system.l2.demandAvgMissLatency::cpu.inst 79452.287066                       # average overall miss latency in ticks ((Tick/Count))
system.l2.demandAvgMissLatency::cpu.data 82310.843001                       # average overall miss latency in ticks ((Tick/Count))
system.l2.demandAvgMissLatency::total    82310.226490                       # average overall miss latency in ticks ((Tick/Count))
system.l2.overallAvgMissLatency::cpu.inst 79452.287066                       # average overall miss latency ((Tick/Count))
system.l2.overallAvgMissLatency::cpu.data 82310.843001                       # average overall miss latency ((Tick/Count))
system.l2.overallAvgMissLatency::total   82310.226490                       # average overall miss latency ((Tick/Count))
system.l2.blockedCycles::no_mshrs                   0                       # number of cycles access was blocked (Cycle)
system.l2.blockedCycles::no_targets                 0                       # number of cycles access was blocked (Cycle)
system.l2.blockedCauses::no_mshrs                   0                       # number of times access was blocked (Count)
system.l2.blockedCauses::no_targets                 0                       # number of times access was blocked (Count)
system.l2.avgBlocked::no_mshrs                    nan                       # average number of cycles each access was blocked ((Cycle/Count))
system.l2.avgBlocked::no_targets                  nan                       # average number of cycles each access was blocked ((Cycle/Count))
system.l2.writebacks::writebacks              2500738                       # number of writebacks (Count)
system.l2.writebacks::total                   2500738                       # number of writebacks (Count)
system.l2.demandMshrMisses::cpu.inst             1268                       # number of demand (read+write) MSHR misses (Count)
system.l2.demandMshrMisses::cpu.data          5878022                       # number of demand (read+write) MSHR misses (Count)
system.l2.demandMshrMisses::total             5879290                       # number of demand (read+write) MSHR misses (Count)
system.l2.overallMshrMisses::cpu.inst            1268                       # number of overall MSHR misses (Count)
system.l2.overallMshrMisses::cpu.data         5878022                       # number of overall MSHR misses (Count)
system.l2.overallMshrMisses::total            5879290                       # number of overall MSHR misses (Count)
system.l2.demandMshrMissLatency::cpu.inst     94405500                       # number of demand (read+write) MSHR miss ticks (Tick)
system.l2.demandMshrMissLatency::cpu.data 454434836000                       # number of demand (read+write) MSHR miss ticks (Tick)
system.l2.demandMshrMissLatency::total   454529241500                       # number of demand (read+write) MSHR miss ticks (Tick)
system.l2.overallMshrMissLatency::cpu.inst     94405500                       # number of overall MSHR miss ticks (Tick)
system.l2.overallMshrMissLatency::cpu.data 454434836000                       # number of overall MSHR miss ticks (Tick)
system.l2.overallMshrMissLatency::total  454529241500                       # number of overall MSHR miss ticks (Tick)
system.l2.demandMshrMissRate::cpu.inst       0.787089                       # mshr miss ratio for demand accesses (Ratio)
system.l2.demandMshrMissRate::cpu.data       0.999950                       # mshr miss ratio for demand accesses (Ratio)
system.l2.demandMshrMissRate::total          0.999891                       # mshr miss ratio for demand accesses (Ratio)
system.l2.overallMshrMissRate::cpu.inst      0.787089                       # mshr miss ratio for overall accesses (Ratio)
system.l2.overallMshrMissRate::cpu.data      0.999950                       # mshr miss ratio for overall accesses (Ratio)
system.l2.overallMshrMissRate::total         0.999891                       # mshr miss ratio for overall accesses (Ratio)
system.l2.demandAvgMshrMissLatency::cpu.inst 74452.287066                       # average overall mshr miss latency ((Tick/Count))
system.l2.demandAvgMshrMissLatency::cpu.data 77310.843001                       # average overall mshr miss latency ((Tick/Count))
system.l2.demandAvgMshrMissLatency::total 77310.226490                       # average overall mshr miss latency ((Tick/Count))
system.l2.overallAvgMshrMissLatency::cpu.inst 74452.287066                       # average overall mshr miss latency ((Tick/Count))
system.l2.overallAvgMshrMissLatency::cpu.data 77310.843001                       # average overall mshr miss latency ((Tick/Count))
system.l2.overallAvgMshrMissLatency::total 77310.226490                       # average overall mshr miss latency ((Tick/Count))
system.l2.replacements                        5846706                       # number of replacements (Count)
system.l2.CleanEvict.mshrMisses::writebacks            4                       # number of CleanEvict MSHR misses (Count)
system.l2.CleanEvict.mshrMisses::total              4                       # number of CleanEvict MSHR misses (Count)
system.l2.CleanEvict.mshrMissRate::writebacks          inf                       # mshr miss rate for CleanEvict accesses (Ratio)
system.l2.CleanEvict.mshrMissRate::total          inf                       # mshr miss rate for CleanEvict accesses (Ratio)
system.l2.ReadCleanReq.hits::cpu.inst             343                       # number of ReadCleanReq hits (Count)
system.l2.ReadCleanReq.hits::total                343                       # number of ReadCleanReq hits (Count)
system.l2.ReadCleanReq.misses::cpu.inst          1268                       # number of ReadCleanReq misses (Count)
system.l2.ReadCleanReq.misses::total             1268                       # number of ReadCleanReq misses (Count)
system.l2.ReadCleanReq.missLatency::cpu.inst    100745500                       # number of ReadCleanReq miss ticks (Tick)
system.l2.ReadCleanReq.missLatency::total    100745500                       # number of ReadCleanReq miss ticks (Tick)
system.l2.ReadCleanReq.accesses::cpu.inst         1611                       # number of ReadCleanReq accesses(hits+misses) (Count)
system.l2.ReadCleanReq.accesses::total           1611                       # number of ReadCleanReq accesses(hits+misses) (Count)
system.l2.ReadCleanReq.missRate::cpu.inst     0.787089                       # miss rate for ReadCleanReq accesses (Ratio)
system.l2.ReadCleanReq.missRate::total       0.787089                       # miss rate for ReadCleanReq accesses (Ratio)
system.l2.ReadCleanReq.avgMissLatency::cpu.inst 79452.287066                       # average ReadCleanReq miss latency ((Tick/Count))
system.l2.ReadCleanReq.avgMissLatency::total 79452.287066                       # average ReadCleanReq miss latency ((Tick/Count))
system.l2.ReadCleanReq.mshrMisses::cpu.inst         1268                       # number of ReadCleanReq MSHR misses (Count)
system.l2.ReadCleanReq.mshrMisses::total         1268                       # number of ReadCleanReq MSHR misses (Count)
system.l2.ReadCleanReq.mshrMissLatency::cpu.inst     94405500                       # number of ReadCleanReq MSHR miss ticks (Tick)
system.l2.ReadCleanReq.mshrMissLatency::total     94405500                       # number of ReadCleanReq MSHR miss ticks (Tick)
system.l2.ReadCleanReq.mshrMissRate::cpu.inst     0.787089                       # mshr miss rate for ReadCleanReq accesses (Ratio)
system.l2.ReadCleanReq.mshrMissRate::total     0.787089                       # mshr miss rate for ReadCleanReq accesses (Ratio)
system.l2.ReadCleanReq.avgMshrMissLatency::cpu.inst 74452.287066                       # average ReadCleanReq mshr miss latency ((Tick/Count))
system.l2.ReadCleanReq.avgMshrMissLatency::total 74452.287066                       # average ReadCleanReq mshr miss latency ((Tick/Count))
system.l2.ReadExReq.hits::cpu.data                 44                       # number of ReadExReq hits (Count)
system.l2.ReadExReq.hits::total                    44                       # number of ReadExReq hits (Count)
system.l2.ReadExReq.misses::cpu.data          2375696                       # number of ReadExReq misses (Count)
system.l2.ReadExReq.misses::total             2375696                       # number of ReadExReq misses (Count)
system.l2.ReadExReq.missLatency::cpu.data 196822467750                       # number of ReadExReq miss ticks (Tick)
system.l2.ReadExReq.missLatency::total   196822467750                       # number of ReadExReq miss ticks (Tick)
system.l2.ReadExReq.accesses::cpu.data        2375740                       # number of ReadExReq accesses(hits+misses) (Count)
system.l2.ReadExReq.accesses::total           2375740                       # number of ReadExReq accesses(hits+misses) (Count)
system.l2.ReadExReq.missRate::cpu.data       0.999981                       # miss rate for ReadExReq accesses (Ratio)
system.l2.ReadExReq.missRate::total          0.999981                       # miss rate for ReadExReq accesses (Ratio)
system.l2.ReadExReq.avgMissLatency::cpu.data 82848.339076                       # average ReadExReq miss latency ((Tick/Count))
system.l2.ReadExReq.avgMissLatency::total 82848.339076                       # average ReadExReq miss latency ((Tick/Count))
system.l2.ReadExReq.mshrMisses::cpu.data      2375696                       # number of ReadExReq MSHR misses (Count)
system.l2.ReadExReq.mshrMisses::total         2375696                       # number of ReadExReq MSHR misses (Count)
system.l2.ReadExReq.mshrMissLatency::cpu.data 184943987750                       # number of ReadExReq MSHR miss ticks (Tick)
system.l2.ReadExReq.mshrMissLatency::total 184943987750                       # number of ReadExReq MSHR miss ticks (Tick)
system.l2.ReadExReq.mshrMissRate::cpu.data     0.999981                       # mshr miss rate for ReadExReq accesses (Ratio)
system.l2.ReadExReq.mshrMissRate::total      0.999981                       # mshr miss rate for ReadExReq accesses (Ratio)
system.l2.ReadExReq.avgMshrMissLatency::cpu.data 77848.339076                       # average ReadExReq mshr miss latency ((Tick/Count))
system.l2.ReadExReq.avgMshrMissLatency::total 77848.339076                       # average ReadExReq mshr miss latency ((Tick/Count))
system.l2.ReadSharedReq.hits::cpu.data            252                       # number of ReadSharedReq hits (Count)
system.l2.ReadSharedReq.hits::total               252                       # number of ReadSharedReq hits (Count)
system.l2.ReadSharedReq.misses::cpu.data      3502326                       # number of ReadSharedReq misses (Count)
system.l2.ReadSharedReq.misses::total         3502326                       # number of ReadSharedReq misses (Count)
system.l2.ReadSharedReq.missLatency::cpu.data 287002478250                       # number of ReadSharedReq miss ticks (Tick)
system.l2.ReadSharedReq.missLatency::total 287002478250                       # number of ReadSharedReq miss ticks (Tick)
system.l2.ReadSharedReq.accesses::cpu.data      3502578                       # number of ReadSharedReq accesses(hits+misses) (Count)
system.l2.ReadSharedReq.accesses::total       3502578                       # number of ReadSharedReq accesses(hits+misses) (Count)
system.l2.ReadSharedReq.missRate::cpu.data     0.999928                       # miss rate for ReadSharedReq accesses (Ratio)
system.l2.ReadSharedReq.missRate::total      0.999928                       # miss rate for ReadSharedReq accesses (Ratio)
system.l2.ReadSharedReq.avgMissLatency::cpu.data 81946.248936                       # average ReadSharedReq miss latency ((Tick/Count))
system.l2.ReadSharedReq.avgMissLatency::total 81946.248936                       # average ReadSharedReq miss latency ((Tick/Count))
system.l2.ReadSharedReq.mshrMisses::cpu.data      3502326                       # number of ReadSharedReq MSHR misses (Count)
system.l2.ReadSharedReq.mshrMisses::total      3502326                       # number of ReadSharedReq MSHR misses (Count)
system.l2.ReadSharedReq.mshrMissLatency::cpu.data 269490848250                       # number of ReadSharedReq MSHR miss ticks (Tick)
system.l2.ReadSharedReq.mshrMissLatency::total 269490848250                       # number of ReadSharedReq MSHR miss ticks (Tick)
system.l2.ReadSharedReq.mshrMissRate::cpu.data     0.999928                       # mshr miss rate for ReadSharedReq accesses (Ratio)
system.l2.ReadSharedReq.mshrMissRate::total     0.999928                       # mshr miss rate for ReadSharedReq accesses (Ratio)
system.l2.ReadSharedReq.avgMshrMissLatency::cpu.data 76946.248936                       # average ReadSharedReq mshr miss latency ((Tick/Count))
system.l2.ReadSharedReq.avgMshrMissLatency::total 76946.248936                       # average ReadSharedReq mshr miss latency ((Tick/Count))
system.l2.WritebackClean.hits::writebacks         1109                       # number of WritebackClean hits (Count)
system.l2.WritebackClean.hits::total             1109                       # number of WritebackClean hits (Count)
system.l2.WritebackClean.accesses::writebacks         1109                       # number of WritebackClean accesses(hits+misses) (Count)
system.l2.WritebackClean.accesses::total         1109                       # number of WritebackClean accesses(hits+misses) (Count)
system.l2.WritebackDirty.hits::writebacks      2500906                       # number of WritebackDirty hits (Count)
system.l2.WritebackDirty.hits::total          2500906                       # number of WritebackDirty hits (Count)
system.l2.WritebackDirty.accesses::writebacks      2500906                       # number of WritebackDirty accesses(hits+misses) (Count)
system.l2.WritebackDirty.accesses::total      2500906                       # number of WritebackDirty accesses(hits+misses) (Count)
system.l2.power_state.pwrStateResidencyTicks::UNDEFINED 541757816750                       # Cumulative time (in ticks) in various power states (Tick)
system.l2.tags.tagsInUse                 32665.824963                       # Average ticks per tags in use ((Tick/Count))
system.l2.tags.totalRefs                     11758328                       # Total number of references to valid blocks. (Count)
system.l2.tags.sampledRefs                    5879474                       # Sample count of references to valid blocks. (Count)
system.l2.tags.avgRefs                       1.999895                       # Average number of references to valid blocks. ((Count/Count))
system.l2.tags.warmupTick                       80000                       # The tick when the warmup percentage was hit. (Tick)
system.l2.tags.occupancies::writebacks       0.533966                       # Average occupied blocks per tick, per requestor ((Count/Tick))
system.l2.tags.occupancies::cpu.inst         6.629981                       # Average occupied blocks per tick, per requestor ((Count/Tick))
system.l2.tags.occupancies::cpu.data     32658.661017                       # Average occupied blocks per tick, per requestor ((Count/Tick))
system.l2.tags.avgOccs::writebacks           0.000016                       # Average percentage of cache occupancy ((Ratio/Tick))
system.l2.tags.avgOccs::cpu.inst             0.000202                       # Average percentage of cache occupancy ((Ratio/Tick))
system.l2.tags.avgOccs::cpu.data             0.996663                       # Average percentage of cache occupancy ((Ratio/Tick))
system.l2.tags.avgOccs::total                0.996882                       # Average percentage of cache occupancy ((Ratio/Tick))
system.l2.tags.occupanciesTaskId::1024          32768                       # Occupied blocks per task id (Count)
system.l2.tags.ageTaskId_1024::0                  184                       # Occupied blocks per task id, per block age (Count)
system.l2.tags.ageTaskId_1024::1                  776                       # Occupied blocks per task id, per block age (Count)
system.l2.tags.ageTaskId_1024::2                 7296                       # Occupied blocks per task id, per block age (Count)
system.l2.tags.ageTaskId_1024::3                24512                       # Occupied blocks per task id, per block age (Count)
system.l2.tags.ratioOccsTaskId::1024                1                       # Ratio of occupied blocks and all blocks, per task id (Ratio)
system.l2.tags.tagAccesses                   99946130                       # Number of tag accesses (Count)
system.l2.tags.dataAccesses                  99946130                       # Number of data accesses (Count)
system.l2.tags.power_state.pwrStateResidencyTicks::UNDEFINED 541757816750                       # Cumulative time (in ticks) in various power states (Tick)
system.mem_ctrls.avgPriority_writebacks::samples   5001476.00                       # Average QoS priority value for accepted requests (Count)
system.mem_ctrls.avgPriority_cpu.inst::samples      2536.00                       # Average QoS priority value for accepted requests (Count)
system.mem_ctrls.avgPriority_cpu.data::samples  11756015.00                       # Average QoS priority value for accepted requests (Count)
system.mem_ctrls.priorityMinLatency      0.000000020000                       # per QoS priority minimum request to response latency (Second)
system.mem_ctrls.priorityMaxLatency      0.001153288000                       # per QoS priority maximum request to response latency (Second)
system.mem_ctrls.numReadWriteTurnArounds       292744                       # Number of turnarounds from READ to WRITE (Count)
system.mem_ctrls.numWriteReadTurnArounds       292744                       # Number of turnarounds from WRITE to READ (Count)
system.mem_ctrls.numStayReadState            20067652                       # Number of times bus staying in READ state (Count)
system.mem_ctrls.numStayWriteState            4709542                       # Number of times bus staying in WRITE state (Count)
system.mem_ctrls.readReqs                     5879290                       # Number of read requests accepted (Count)
system.mem_ctrls.writeReqs                    2500738                       # Number of write requests accepted (Count)
system.mem_ctrls.readBursts                  11758580                       # Number of controller read bursts, including those serviced by the write queue (Count)
system.mem_ctrls.writeBursts                  5001476                       # Number of controller write bursts, including those merged in the write queue (Count)
system.mem_ctrls.servicedByWrQ                     29                       # Number of controller read bursts serviced by the write queue (Count)
system.mem_ctrls.mergedWrBursts                     0                       # Number of controller write bursts merged with an existing one (Count)
system.mem_ctrls.neitherReadNorWriteReqs            0                       # Number of requests that are neither read nor write (Count)
system.mem_ctrls.avgRdQLen                       2.18                       # Average read queue length when enqueuing ((Count/Tick))
system.mem_ctrls.avgWrQLen                      26.02                       # Average write queue length when enqueuing ((Count/Tick))
system.mem_ctrls.numRdRetry                         0                       # Number of times read queue was full causing retry (Count)
system.mem_ctrls.numWrRetry                         0                       # Number of times write queue was full causing retry (Count)
system.mem_ctrls.readPktSize::0                     0                       # Read request sizes (log2) (Count)
system.mem_ctrls.readPktSize::1                     0                       # Read request sizes (log2) (Count)
system.mem_ctrls.readPktSize::2                     0                       # Read request sizes (log2) (Count)
system.mem_ctrls.readPktSize::3                     0                       # Read request sizes (log2) (Count)
system.mem_ctrls.readPktSize::4                     0                       # Read request sizes (log2) (Count)
system.mem_ctrls.readPktSize::5              11758580                       # Read request sizes (log2) (Count)
system.mem_ctrls.readPktSize::6                     0                       # Read request sizes (log2) (Count)
system.mem_ctrls.writePktSize::0                    0                       # Write request sizes (log2) (Count)
system.mem_ctrls.writePktSize::1                    0                       # Write request sizes (log2) (Count)
system.mem_ctrls.writePktSize::2                    0                       # Write request sizes (log2) (Count)
system.mem_ctrls.writePktSize::3                    0                       # Write request sizes (log2) (Count)
system.mem_ctrls.writePktSize::4                    0                       # Write request sizes (log2) (Count)
system.mem_ctrls.writePktSize::5              5001476                       # Write request sizes (log2) (Count)
system.mem_ctrls.writePktSize::6                    0                       # Write request sizes (log2) (Count)
system.mem_ctrls.rdQLenPdf::0                 5379273                       # What read queue length does an incoming req see (Count)
system.mem_ctrls.rdQLenPdf::1                 5379272                       # What read queue length does an incoming req see (Count)
system.mem_ctrls.rdQLenPdf::2                  499999                       # What read queue length does an incoming req see (Count)
system.mem_ctrls.rdQLenPdf::3                  499999                       # What read queue length does an incoming req see (Count)
system.mem_ctrls.rdQLenPdf::4                       4                       # What read queue length does an incoming req see (Count)
system.mem_ctrls.rdQLenPdf::5                       4                       # What read queue length does an incoming req see (Count)
system.mem_ctrls.rdQLenPdf::6                       0                       # What read queue length does an incoming req see (Count)
system.mem_ctrls.rdQLenPdf::7                       0                       # What read queue length does an incoming req see (Count)
system.mem_ctrls.rdQLenPdf::8                       0                       # What read queue length does an incoming req see (Count)
system.mem_ctrls.rdQLenPdf::9                       0                       # What read queue length does an incoming req see (Count)
system.mem_ctrls.rdQLenPdf::10                      0                       # What read queue length does an incoming req see (Count)
system.mem_ctrls.rdQLenPdf::11                      0                       # What read queue length does an incoming req see (Count)
system.mem_ctrls.rdQLenPdf::12                      0                       # What read queue length does an incoming req see (Count)
system.mem_ctrls.rdQLenPdf::13                      0                       # What read queue length does an incoming req see (Count)
system.mem_ctrls.rdQLenPdf::14                      0                       # What read queue length does an incoming req see (Count)
system.mem_ctrls.rdQLenPdf::15                      0                       # What read queue length does an incoming req see (Count)
system.mem_ctrls.rdQLenPdf::16                      0                       # What read queue length does an incoming req see (Count)
system.mem_ctrls.rdQLenPdf::17                      0                       # What read queue length does an incoming req see (Count)
system.mem_ctrls.rdQLenPdf::18                      0                       # What read queue length does an incoming req see (Count)
system.mem_ctrls.rdQLenPdf::19                      0                       # What read queue length does an incoming req see (Count)
system.mem_ctrls.rdQLenPdf::20                      0                       # What read queue length does an incoming req see (Count)
system.mem_ctrls.rdQLenPdf::21                      0                       # What read queue length does an incoming req see (Count)
system.mem_ctrls.rdQLenPdf::22                      0                       # What read queue length does an incoming req see (Count)
system.mem_ctrls.rdQLenPdf::23                      0                       # What read queue length does an incoming req see (Count)
system.mem_ctrls.rdQLenPdf::24                      0                       # What read queue length does an incoming req see (Count)
system.mem_ctrls.rdQLenPdf::25                      0                       # What read queue length does an incoming req see (Count)
system.mem_ctrls.rdQLenPdf::26                      0                       # What read queue length does an incoming req see (Count)
system.mem_ctrls.rdQLenPdf::27                      0                       # What read queue length does an incoming req see (Count)
system.mem_ctrls.rdQLenPdf::28                      0                       # What read queue length does an incoming req see (Count)
system.mem_ctrls.rdQLenPdf::29                      0                       # What read queue length does an incoming req see (Count)
system.mem_ctrls.rdQLenPdf::30                      0                       # What read queue length does an incoming req see (Count)
system.mem_ctrls.rdQLenPdf::31                      0                       # What read queue length does an incoming req see (Count)
system.mem_ctrls.rdQLenPdf::32                      0                       # What read queue length does an incoming req see (Count)
system.mem_ctrls.rdQLenPdf::33                      0                       # What read queue length does an incoming req see (Count)
system.mem_ctrls.rdQLenPdf::34                      0                       # What read queue length does an incoming req see (Count)
system.mem_ctrls.rdQLenPdf::35                      0                       # What read queue length does an incoming req see (Count)
system.mem_ctrls.rdQLenPdf::36                      0                       # What read queue length does an incoming req see (Count)
system.mem_ctrls.rdQLenPdf::37                      0                       # What read queue length does an incoming req see (Count)
system.mem_ctrls.rdQLenPdf::38                      0                       # What read queue length does an incoming req see (Count)
system.mem_ctrls.rdQLenPdf::39                      0                       # What read queue length does an incoming req see (Count)
system.mem_ctrls.rdQLenPdf::40                      0                       # What read queue length does an incoming req see (Count)
system.mem_ctrls.rdQLenPdf::41                      0                       # What read queue length does an incoming req see (Count)
system.mem_ctrls.rdQLenPdf::42                      0                       # What read queue length does an incoming req see (Count)
system.mem_ctrls.rdQLenPdf::43                      0                       # What read queue length does an incoming req see (Count)
system.mem_ctrls.rdQLenPdf::44                      0                       # What read queue length does an incoming req see (Count)
system.mem_ctrls.rdQLenPdf::45                      0                       # What read queue length does an incoming req see (Count)
system.mem_ctrls.rdQLenPdf::46                      0                       # What read queue length does an incoming req see (Count)
system.mem_ctrls.rdQLenPdf::47                      0                       # What read queue length does an incoming req see (Count)
system.mem_ctrls.rdQLenPdf::48                      0                       # What read queue length does an incoming req see (Count)
system.mem_ctrls.rdQLenPdf::49                      0                       # What read queue length does an incoming req see (Count)
system.mem_ctrls.rdQLenPdf::50                      0                       # What read queue length does an incoming req see (Count)
system.mem_ctrls.rdQLenPdf::51                      0                       # What read queue length does an incoming req see (Count)
system.mem_ctrls.rdQLenPdf::52                      0                       # What read queue length does an incoming req see (Count)
system.mem_ctrls.rdQLenPdf::53                      0                       # What read queue length does an incoming req see (Count)
system.mem_ctrls.rdQLenPdf::54                      0                       # What read queue length does an incoming req see (Count)
system.mem_ctrls.rdQLenPdf::55                      0                       # What read queue length does an incoming req see (Count)
system.mem_ctrls.rdQLenPdf::56                      0                       # What read queue length does an incoming req see (Count)
system.mem_ctrls.rdQLenPdf::57                      0                       # What read queue length does an incoming req see (Count)
system.mem_ctrls.rdQLenPdf::58                      0                       # What read queue length does an incoming req see (Count)
system.mem_ctrls.rdQLenPdf::59                      0                       # What read queue length does an incoming req see (Count)
system.mem_ctrls.rdQLenPdf::60                      0                       # What read queue length does an incoming req see (Count)
system.mem_ctrls.rdQLenPdf::61                      0                       # What read queue length does an incoming req see (Count)
system.mem_ctrls.rdQLenPdf::62                      0                       # What read queue length does an incoming req see (Count)
system.mem_ctrls.rdQLenPdf::63                      0                       # What read queue length does an incoming req see (Count)
system.mem_ctrls.wrQLenPdf::0                       1                       # What write queue length does an incoming req see (Count)
[...]
system.mem_ctrls.dram.perBankRdBursts::6       734898                       # Per bank write bursts (Count)
system.mem_ctrls.dram.perBankRdBursts::7       734970                       # Per bank write bursts (Count)
system.mem_ctrls.dram.perBankRdBursts::8       734872                       # Per bank write bursts (Count)
system.mem_ctrls.dram.perBankRdBursts::9       735086                       # Per bank write bursts (Count)
system.mem_ctrls.dram.perBankRdBursts::10       734954                       # Per bank write bursts (Count)
system.mem_ctrls.dram.perBankRdBursts::11       734894                       # Per bank write bursts (Count)
system.mem_ctrls.dram.perBankRdBursts::12       735033                       # Per bank write bursts (Count)
system.mem_ctrls.dram.perBankRdBursts::13       734954                       # Per bank write bursts (Count)
system.mem_ctrls.dram.perBankRdBursts::14       734520                       # Per bank write bursts (Count)
system.mem_ctrls.dram.perBankRdBursts::15       734694                       # Per bank write bursts (Count)
system.mem_ctrls.dram.perBankWrBursts::0       312612                       # Per bank write bursts (Count)
system.mem_ctrls.dram.perBankWrBursts::1       312662                       # Per bank write bursts (Count)
system.mem_ctrls.dram.perBankWrBursts::2       312688                       # Per bank write bursts (Count)
system.mem_ctrls.dram.perBankWrBursts::3       312670                       # Per bank write bursts (Count)
system.mem_ctrls.dram.perBankWrBursts::4       312638                       # Per bank write bursts (Count)
system.mem_ctrls.dram.perBankWrBursts::5       312558                       # Per bank write bursts (Count)
system.mem_ctrls.dram.perBankWrBursts::6       312576                       # Per bank write bursts (Count)
system.mem_ctrls.dram.perBankWrBursts::7       312568                       # Per bank write bursts (Count)
system.mem_ctrls.dram.perBankWrBursts::8       312568                       # Per bank write bursts (Count)
system.mem_ctrls.dram.perBankWrBursts::9       312638                       # Per bank write bursts (Count)
system.mem_ctrls.dram.perBankWrBursts::10       312620                       # Per bank write bursts (Count)
system.mem_ctrls.dram.perBankWrBursts::11       312610                       # Per bank write bursts (Count)
system.mem_ctrls.dram.perBankWrBursts::12       312585                       # Per bank write bursts (Count)
system.mem_ctrls.dram.perBankWrBursts::13       312560                       # Per bank write bursts (Count)
system.mem_ctrls.dram.perBankWrBursts::14       312384                       # Per bank write bursts (Count)
system.mem_ctrls.dram.perBankWrBursts::15       312508                       # Per bank write bursts (Count)
system.mem_ctrls.dram.totQLat            238754143500                       # Total ticks spent queuing (Tick)
system.mem_ctrls.dram.totBusLat           23517102000                       # Total ticks spent in databus transfers (Tick)
system.mem_ctrls.dram.totMemAccLat       473925163500                       # Total ticks spent from burst creation until serviced by the DRAM (Tick)
system.mem_ctrls.dram.avgQLat                20304.72                       # Average queueing delay per DRAM burst ((Tick/Count))
system.mem_ctrls.dram.avgBusLat               2000.00                       # Average bus latency per DRAM burst ((Tick/Count))
system.mem_ctrls.dram.avgMemAccLat           40304.72                       # Average memory access latency per DRAM burst ((Tick/Count))
system.mem_ctrls.dram.readRowHits             5879047                       # Number of row buffer hits during reads (Count)
system.mem_ctrls.dram.writeRowHits            4395732                       # Number of row buffer hits during writes (Count)
system.mem_ctrls.dram.readRowHitRate            50.00                       # Row buffer hit rate for reads (Ratio)
system.mem_ctrls.dram.writeRowHitRate           87.89                       # Row buffer hit rate for writes (Ratio)
system.mem_ctrls.dram.bytesPerActivate::samples      6485217                       # Bytes accessed per row activation (Byte)
system.mem_ctrls.dram.bytesPerActivate::mean    82.698832                       # Bytes accessed per row activation (Byte)
system.mem_ctrls.dram.bytesPerActivate::gmean    71.947835                       # Bytes accessed per row activation (Byte)
system.mem_ctrls.dram.bytesPerActivate::stdev    70.294396                       # Bytes accessed per row activation (Byte)
system.mem_ctrls.dram.bytesPerActivate::0-63        25774      0.40%      0.40% # Bytes accessed per row activation (Byte)
system.mem_ctrls.dram.bytesPerActivate::64-127      5934957     91.52%     91.91% # Bytes accessed per row activation (Byte)
system.mem_ctrls.dram.bytesPerActivate::128-191        40485      0.62%     92.54% # Bytes accessed per row activation (Byte)
system.mem_ctrls.dram.bytesPerActivate::192-255       139070      2.14%     94.68% # Bytes accessed per row activation (Byte)
system.mem_ctrls.dram.bytesPerActivate::256-319       162587      2.51%     97.19% # Bytes accessed per row activation (Byte)
system.mem_ctrls.dram.bytesPerActivate::320-383        77364      1.19%     98.38% # Bytes accessed per row activation (Byte)
system.mem_ctrls.dram.bytesPerActivate::384-447        18391      0.28%     98.66% # Bytes accessed per row activation (Byte)
system.mem_ctrls.dram.bytesPerActivate::448-511        24992      0.39%     99.05% # Bytes accessed per row activation (Byte)
system.mem_ctrls.dram.bytesPerActivate::512-575        61597      0.95%    100.00% # Bytes accessed per row activation (Byte)
system.mem_ctrls.dram.bytesPerActivate::total      6485217                       # Bytes accessed per row activation (Byte)
system.mem_ctrls.dram.bytesRead             376273632                       # Total bytes read (Byte)
system.mem_ctrls.dram.bytesWritten          160046240                       # Total bytes written (Byte)
system.mem_ctrls.dram.avgRdBW              694.542137                       # Average DRAM read bandwidth in MiBytes/s ((Byte/Second))
system.mem_ctrls.dram.avgWrBW              295.420269                       # Average DRAM write bandwidth in MiBytes/s ((Byte/Second))
system.mem_ctrls.dram.peakBW                 16000.00                       # Theoretical peak bandwidth in MiByte/s ((Byte/Second))
system.mem_ctrls.dram.busUtil                    6.19                       # Data bus utilization in percentage (Ratio)
system.mem_ctrls.dram.busUtilRead                4.34                       # Data bus utilization in percentage for reads (Ratio)
system.mem_ctrls.dram.busUtilWrite               1.85                       # Data bus utilization in percentage for writes (Ratio)
system.mem_ctrls.dram.pageHitRate               61.31                       # Row buffer hit rate, read and write combined (Ratio)
system.mem_ctrls.dram.power_state.pwrStateResidencyTicks::UNDEFINED 541757816750                       # Cumulative time (in ticks) in various power states (Tick)
system.mem_ctrls.dram.rank0.actEnergy               0                       # Energy for activate commands per rank (pJ) (Joule)
system.mem_ctrls.dram.rank0.preEnergy               0                       # Energy for precharge commands per rank (pJ) (Joule)
system.mem_ctrls.dram.rank0.readEnergy              0                       # Energy for read commands per rank (pJ) (Joule)
system.mem_ctrls.dram.rank0.writeEnergy             0                       # Energy for write commands per rank (pJ) (Joule)
system.mem_ctrls.dram.rank0.refreshEnergy            0                       # Energy for refresh commands per rank (pJ) (Joule)
system.mem_ctrls.dram.rank0.actBackEnergy            0                       # Energy for active background per rank (pJ) (Joule)
system.mem_ctrls.dram.rank0.preBackEnergy            0                       # Energy for precharge background per rank (pJ) (Joule)
system.mem_ctrls.dram.rank0.actPowerDownEnergy            0                       # Energy for active power-down per rank (pJ) (Joule)
system.mem_ctrls.dram.rank0.prePowerDownEnergy            0                       # Energy for precharge power-down per rank (pJ) (Joule)
system.mem_ctrls.dram.rank0.selfRefreshEnergy            0                       # Energy for self refresh per rank (pJ) (Joule)
system.mem_ctrls.dram.rank0.totalEnergy             0                       # Total energy per rank (pJ) (Joule)
system.mem_ctrls.dram.rank0.averagePower            0                       # Core power per rank (mW) (Watt)
system.mem_ctrls.dram.rank0.totalIdleTime            0                       # Total Idle time Per DRAM Rank (Tick)
system.mem_ctrls.dram.rank0.pwrStateTime::IDLE 115542588250                       # Time in different power states (Tick)
system.mem_ctrls.dram.rank0.pwrStateTime::REF  30670640000                       # Time in different power states (Tick)
system.mem_ctrls.dram.rank0.pwrStateTime::SREF            0                       # Time in different power states (Tick)
system.mem_ctrls.dram.rank0.pwrStateTime::PRE_PDN            0                       # Time in different power states (Tick)
system.mem_ctrls.dram.rank0.pwrStateTime::ACT 395544588500                       # Time in different power states (Tick)
system.mem_ctrls.dram.rank0.pwrStateTime::ACT_PDN            0                       # Time in different power states (Tick)
system.mem_ctrls.power_state.pwrStateResidencyTicks::UNDEFINED 541757816750                       # Cumulative time (in ticks) in various power states (Tick)
system.membus.transDist::ReadResp             3503594                       # Transaction distribution (Count)
system.membus.transDist::WritebackDirty       2500738                       # Transaction distribution (Count)
system.membus.transDist::CleanEvict           3345386                       # Transaction distribution (Count)
system.membus.transDist::ReadExReq            2375696                       # Transaction distribution (Count)
system.membus.transDist::ReadExResp           2375696                       # Transaction distribution (Count)
system.membus.transDist::ReadSharedReq        3503594                       # Transaction distribution (Count)
system.membus.pktCount_system.l2.mem_side_port::system.mem_ctrls.port     17604704                       # Packet count per connected requestor and responder (Count)
system.membus.pktCount_system.l2.mem_side_port::total     17604704                       # Packet count per connected requestor and responder (Count)
system.membus.pktCount::total                17604704                       # Packet count per connected requestor and responder (Count)
system.membus.pktSize_system.l2.mem_side_port::system.mem_ctrls.port    536321792                       # Cumulative packet size per connected requestor and responder (Byte)
system.membus.pktSize_system.l2.mem_side_port::total    536321792                       # Cumulative packet size per connected requestor and responder (Byte)
system.membus.pktSize::total                536321792                       # Cumulative packet size per connected requestor and responder (Byte)
system.membus.snoops                                0                       # Total snoops (Count)
system.membus.snoopTraffic                          0                       # Total snoop traffic (Byte)
system.membus.snoopFanout::samples            5879290                       # Request fanout histogram (Count)
system.membus.snoopFanout::mean                     0                       # Request fanout histogram (Count)
system.membus.snoopFanout::stdev                    0                       # Request fanout histogram (Count)
system.membus.snoopFanout::underflows               0      0.00%      0.00% # Request fanout histogram (Count)
system.membus.snoopFanout::0                  5879290    100.00%    100.00% # Request fanout histogram (Count)
system.membus.snoopFanout::1                        0      0.00%    100.00% # Request fanout histogram (Count)
system.membus.snoopFanout::overflows                0      0.00%    100.00% # Request fanout histogram (Count)
system.membus.snoopFanout::min_value                0                       # Request fanout histogram (Count)
system.membus.snoopFanout::max_value                0                       # Request fanout histogram (Count)
system.membus.snoopFanout::total              5879290                       # Request fanout histogram (Count)
system.membus.power_state.pwrStateResidencyTicks::UNDEFINED 541757816750                       # Cumulative time (in ticks) in various power states (Tick)
system.membus.reqLayer2.occupancy         23079434500                       # Layer occupancy (ticks) (Tick)
system.membus.reqLayer2.utilization               0.0                       # Layer utilization (Ratio)
system.membus.respLayer1.occupancy        29492422750                       # Layer occupancy (ticks) (Tick)
system.membus.respLayer1.utilization              0.1                       # Layer utilization (Ratio)
system.membus.snoop_filter.totRequests       11725414                       # Total number of requests made to the snoop filter. (Count)
system.membus.snoop_filter.hitSingleRequests      5846124                       # Number of requests hitting in the snoop filter with a single holder of the requested data. (Count)
system.membus.snoop_filter.hitMultiRequests            0                       # Number of requests hitting in the snoop filter with multiple (>1) holders of the requested data. (Count)
system.membus.snoop_filter.totSnoops                0                       # Total number of snoops made to the snoop filter. (Count)
system.membus.snoop_filter.hitSingleSnoops            0                       # Number of snoops hitting in the snoop filter with a single holder of the requested data. (Count)
system.membus.snoop_filter.hitMultiSnoops            0                       # Number of snoops hitting in the snoop filter with multiple (>1) holders of the requested data. (Count)
system.tol2bus.transDist::ReadResp            3504189                       # Transaction distribution (Count)
system.tol2bus.transDist::WritebackDirty      5001644                       # Transaction distribution (Count)
system.tol2bus.transDist::WritebackClean         1109                       # Transaction distribution (Count)
system.tol2bus.transDist::CleanEvict          6722356                       # Transaction distribution (Count)
system.tol2bus.transDist::ReadExReq           2375740                       # Transaction distribution (Count)
system.tol2bus.transDist::ReadExResp          2375740                       # Transaction distribution (Count)
system.tol2bus.transDist::ReadCleanReq           1611                       # Transaction distribution (Count)
system.tol2bus.transDist::ReadSharedReq       3502578                       # Transaction distribution (Count)
system.tol2bus.pktCount_system.cpu.icache.mem_side_port::system.l2.cpu_side_port         4331                       # Packet count per connected requestor and responder (Count)
system.tol2bus.pktCount_system.cpu.dcache.mem_side_port::system.l2.cpu_side_port     17633930                       # Packet count per connected requestor and responder (Count)
system.tol2bus.pktCount::total               17638261                       # Packet count per connected requestor and responder (Count)
system.tol2bus.pktSize_system.cpu.icache.mem_side_port::system.l2.cpu_side_port       174080                       # Cumulative packet size per connected requestor and responder (Byte)
system.tol2bus.pktSize_system.cpu.dcache.mem_side_port::system.l2.cpu_side_port    536270336                       # Cumulative packet size per connected requestor and responder (Byte)
system.tol2bus.pktSize::total               536444416                       # Cumulative packet size per connected requestor and responder (Byte)
system.tol2bus.snoops                         5846706                       # Total snoops (Count)
system.tol2bus.snoopTraffic                 160047232                       # Total snoop traffic (Byte)
system.tol2bus.snoopFanout::samples          11726635                       # Request fanout histogram (Count)
system.tol2bus.snoopFanout::mean             0.000050                       # Request fanout histogram (Count)
system.tol2bus.snoopFanout::stdev            0.007063                       # Request fanout histogram (Count)
system.tol2bus.snoopFanout::underflows              0      0.00%      0.00% # Request fanout histogram (Count)
system.tol2bus.snoopFanout::0                11726050    100.00%    100.00% # Request fanout histogram (Count)
system.tol2bus.snoopFanout::1                     585      0.00%    100.00% # Request fanout histogram (Count)
system.tol2bus.snoopFanout::2                       0      0.00%    100.00% # Request fanout histogram (Count)
system.tol2bus.snoopFanout::3                       0      0.00%    100.00% # Request fanout histogram (Count)
system.tol2bus.snoopFanout::4                       0      0.00%    100.00% # Request fanout histogram (Count)
system.tol2bus.snoopFanout::overflows               0      0.00%    100.00% # Request fanout histogram (Count)
system.tol2bus.snoopFanout::min_value               0                       # Request fanout histogram (Count)
system.tol2bus.snoopFanout::max_value               1                       # Request fanout histogram (Count)
system.tol2bus.snoopFanout::total            11726635                       # Request fanout histogram (Count)
system.tol2bus.power_state.pwrStateResidencyTicks::UNDEFINED 541757816750                       # Cumulative time (in ticks) in various power states (Tick)
system.tol2bus.reqLayer0.occupancy         4190590500                       # Layer occupancy (ticks) (Tick)
system.tol2bus.reqLayer0.utilization              0.0                       # Layer utilization (Ratio)
system.tol2bus.respLayer0.occupancy           1208250                       # Layer occupancy (ticks) (Tick)
system.tol2bus.respLayer0.utilization             0.0                       # Layer utilization (Ratio)
system.tol2bus.respLayer1.occupancy        4408738500                       # Layer occupancy (ticks) (Tick)
system.tol2bus.respLayer1.utilization             0.0                       # Layer utilization (Ratio)
system.tol2bus.snoop_filter.totRequests      11758332                       # Total number of requests made to the snoop filter. (Count)
system.tol2bus.snoop_filter.hitSingleRequests      5878403                       # Number of requests hitting in the snoop filter with a single holder of the requested data. (Count)
system.tol2bus.snoop_filter.hitMultiRequests            0                       # Number of requests hitting in the snoop filter with multiple (>1) holders of the requested data. (Count)
system.tol2bus.snoop_filter.totSnoops             585                       # Total number of snoops made to the snoop filter. (Count)
system.tol2bus.snoop_filter.hitSingleSnoops          585                       # Number of snoops hitting in the snoop filter with a single holder of the requested data. (Count)
system.tol2bus.snoop_filter.hitMultiSnoops            0                       # Number of snoops hitting in the snoop filter with multiple (>1) holders of the requested data. (Count)
system.voltage_domain.voltage                       1                       # Voltage in Volts (Volt)
system.workload.inst.arm                            0                       # number of arm instructions executed (Count)
system.workload.inst.quiesce                        0                       # number of quiesce instructions executed (Count)

---------- End Simulation Statistics   ----------
