
---------- Begin Simulation Statistics ----------
simSeconds                                   0.538797                       # Number of seconds simulated (Second)
simTicks                                 538797393750                       # Number of ticks simulated (Tick)
finalTick                                538797393750                       # Number of ticks from beginning of simulation (restored from checkpoints and never reset) (Tick)
simFreq                                  1000000000000                       # The number of ticks per simulated second ((Tick/Second))
hostSeconds                                    200.09                       # Real time elapsed on the host (Second)
hostTickRate                               2692793377                       # The number of ticks simulated per host second (ticks/s) ((Tick/Second))
hostMemory                                     689664                       # Number of bytes of host memory used (Byte)
simInsts                                     89975143                       # Number of instructions simulated (Count)
simOps                                      167419174                       # Number of ops (including micro ops) simulated (Count)
hostInstRate                                   449676                       # Simulator instruction rate (inst/s) ((Count/Second))
hostOpRate                                     836724                       # Simulator op (including micro ops) rate (op/s) ((Count/Second))
system.clk_domain.clock                          1000                       # Clock period in ticks (Tick)
system.cpu.numCycles                       2155189575                       # Number of cpu cycles simulated (Cycle)
system.cpu.numWorkItemsStarted                      0                       # Number of work items this cpu started (Count)
system.cpu.numWorkItemsCompleted                    0                       # Number of work items this cpu completed (Count)
system.cpu.dcache.demandHits::cpu.data       49712510                       # number of demand (read+write) hits (Count)
system.cpu.dcache.demandHits::total          49712510                       # number of demand (read+write) hits (Count)
system.cpu.dcache.overallHits::cpu.data      50212502                       # number of overall hits (Count)
system.cpu.dcache.overallHits::total         50212502                       # number of overall hits (Count)
system.cpu.dcache.demandMisses::cpu.data      5378318                       # number of demand (read+write) misses (Count)
system.cpu.dcache.demandMisses::total         5378318                       # number of demand (read+write) misses (Count)
system.cpu.dcache.overallMisses::cpu.data      5878318                       # number of overall misses (Count)
system.cpu.dcache.overallMisses::total        5878318                       # number of overall misses (Count)
system.cpu.dcache.demandMissLatency::cpu.data 446256512000                       # number of demand (read+write) miss ticks (Tick)
system.cpu.dcache.demandMissLatency::total 446256512000                       # number of demand (read+write) miss ticks (Tick)
system.cpu.dcache.overallMissLatency::cpu.data 446256512000                       # number of overall miss ticks (Tick)
system.cpu.dcache.overallMissLatency::total 446256512000                       # number of overall miss ticks (Tick)
system.cpu.dcache.demandAccesses::cpu.data     55090828                       # number of demand (read+write) accesses (Count)
system.cpu.dcache.demandAccesses::total      55090828                       # number of demand (read+write) accesses (Count)
system.cpu.dcache.overallAccesses::cpu.data     56090820                       # number of overall (read+write) accesses (Count)
system.cpu.dcache.overallAccesses::total     56090820                       # number of overall (read+write) accesses (Count)
system.cpu.dcache.demandMissRate::cpu.data     0.097626                       # miss rate for demand accesses (Ratio)
system.cpu.dcache.demandMissRate::total      0.097626                       # miss rate for demand accesses (Ratio)
system.cpu.dcache.overallMissRate::cpu.data     0.104800                       # miss rate for overall accesses (Ratio)
system.cpu.dcache.overallMissRate::total     0.104800                       # miss rate for overall accesses (Ratio)
system.cpu.dcache.demandAvgMissLatency::cpu.data 82973.247770                       # average overall miss latency in ticks ((Tick/Count))
system.cpu.dcache.demandAvgMissLatency::total 82973.247770                       # average overall miss latency in ticks ((Tick/Count))
system.cpu.dcache.overallAvgMissLatency::cpu.data 75915.680642                       # average overall miss latency ((Tick/Count))
system.cpu.dcache.overallAvgMissLatency::total 75915.680642                       # average overall miss latency ((Tick/Count))
system.cpu.dcache.blockedCycles::no_mshrs            0                       # number of cycles access was blocked (Cycle)
system.cpu.dcache.blockedCycles::no_targets            0                       # number of cycles access was blocked (Cycle)
system.cpu.dcache.blockedCauses::no_mshrs            0                       # number of times access was blocked (Count)
system.cpu.dcache.blockedCauses::no_targets            0                       # number of times access was blocked (Count)
system.cpu.dcache.avgBlocked::no_mshrs            nan                       # average number of cycles each access was blocked ((Cycle/Count))
system.cpu.dcache.avgBlocked::no_targets          nan                       # average number of cycles each access was blocked ((Cycle/Count))
system.cpu.dcache.writebacks::writebacks      2500906                       # number of writebacks (Count)
system.cpu.dcache.writebacks::total           2500906                       # number of writebacks (Count)
system.cpu.dcache.demandMshrMisses::cpu.data      5378318                       # number of demand (read+write) MSHR misses (Count)
system.cpu.dcache.demandMshrMisses::total      5378318                       # number of demand (read+write) MSHR misses (Count)
system.cpu.dcache.overallMshrMisses::cpu.data      5878318                       # number of overall MSHR misses (Count)
system.cpu.dcache.overallMshrMisses::total      5878318                       # number of overall MSHR misses (Count)
system.cpu.dcache.demandMshrMissLatency::cpu.data 443567353000                       # number of demand (read+write) MSHR miss ticks (Tick)
system.cpu.dcache.demandMshrMissLatency::total 443567353000                       # number of demand (read+write) MSHR miss ticks (Tick)
system.cpu.dcache.overallMshrMissLatency::cpu.data 484052261000                       # number of overall MSHR miss ticks (Tick)
system.cpu.dcache.overallMshrMissLatency::total 484052261000                       # number of overall MSHR miss ticks (Tick)
system.cpu.dcache.demandMshrMissRate::cpu.data     0.097626                       # mshr miss ratio for demand accesses (Ratio)
system.cpu.dcache.demandMshrMissRate::total     0.097626                       # mshr miss ratio for demand accesses (Ratio)
system.cpu.dcache.overallMshrMissRate::cpu.data     0.104800                       # mshr miss ratio for overall accesses (Ratio)
system.cpu.dcache.overallMshrMissRate::total     0.104800                       # mshr miss ratio for overall accesses (Ratio)
system.cpu.dcache.demandAvgMshrMissLatency::cpu.data 82473.247770                       # average overall mshr miss latency ((Tick/Count))
system.cpu.dcache.demandAvgMshrMissLatency::total 82473.247770                       # average overall mshr miss latency ((Tick/Count))
system.cpu.dcache.overallAvgMshrMissLatency::cpu.data 82345.368352                       # average overall mshr miss latency ((Tick/Count))
system.cpu.dcache.overallAvgMshrMissLatency::total 82345.368352                       # average overall mshr miss latency ((Tick/Count))
system.cpu.dcache.replacements                5877294                       # number of replacements (Count)
system.cpu.dcache.ReadReq.hits::cpu.data     32062819                       # number of ReadReq hits (Count)
system.cpu.dcache.ReadReq.hits::total        32062819                       # number of ReadReq hits (Count)
system.cpu.dcache.ReadReq.misses::cpu.data      3002578                       # number of ReadReq misses (Count)
system.cpu.dcache.ReadReq.misses::total       3002578                       # number of ReadReq misses (Count)
system.cpu.dcache.ReadReq.missLatency::cpu.data 248258703500                       # number of ReadReq miss ticks (Tick)
system.cpu.dcache.ReadReq.missLatency::total 248258703500                       # number of ReadReq miss ticks (Tick)
system.cpu.dcache.ReadReq.accesses::cpu.data     35065397                       # number of ReadReq accesses(hits+misses) (Count)
system.cpu.dcache.ReadReq.accesses::total     35065397                       # number of ReadReq accesses(hits+misses) (Count)
system.cpu.dcache.ReadReq.missRate::cpu.data     0.085628                       # miss rate for ReadReq accesses (Ratio)
system.cpu.dcache.ReadReq.missRate::total     0.085628                       # miss rate for ReadReq accesses (Ratio)
system.cpu.dcache.ReadReq.avgMissLatency::cpu.data 82681.849897                       # average ReadReq miss latency ((Tick/Count))
system.cpu.dcache.ReadReq.avgMissLatency::total 82681.849897                       # average ReadReq miss latency ((Tick/Count))
system.cpu.dcache.ReadReq.mshrMisses::cpu.data      3002578                       # number of ReadReq MSHR misses (Count)
system.cpu.dcache.ReadReq.mshrMisses::total      3002578                       # number of ReadReq MSHR misses (Count)
system.cpu.dcache.ReadReq.mshrMissLatency::cpu.data 246757414500                       # number of ReadReq MSHR miss ticks (Tick)
system.cpu.dcache.ReadReq.mshrMissLatency::total 246757414500                       # number of ReadReq MSHR miss ticks (Tick)
system.cpu.dcache.ReadReq.mshrMissRate::cpu.data     0.085628                       # mshr miss rate for ReadReq accesses (Ratio)
system.cpu.dcache.ReadReq.mshrMissRate::total     0.085628                       # mshr miss rate for ReadReq accesses (Ratio)
system.cpu.dcache.ReadReq.avgMshrMissLatency::cpu.data 82181.849897                       # average ReadReq mshr miss latency ((Tick/Count))
system.cpu.dcache.ReadReq.avgMshrMissLatency::total 82181.849897                       # average ReadReq mshr miss latency ((Tick/Count))
system.cpu.dcache.SoftPFReq.hits::cpu.data       499992                       # number of SoftPFReq hits (Count)
system.cpu.dcache.SoftPFReq.hits::total        499992                       # number of SoftPFReq hits (Count)
system.cpu.dcache.SoftPFReq.misses::cpu.data       500000                       # number of SoftPFReq misses (Count)
system.cpu.dcache.SoftPFReq.misses::total       500000                       # number of SoftPFReq misses (Count)
system.cpu.dcache.SoftPFReq.accesses::cpu.data       999992                       # number of SoftPFReq accesses(hits+misses) (Count)
system.cpu.dcache.SoftPFReq.accesses::total       999992                       # number of SoftPFReq accesses(hits+misses) (Count)
system.cpu.dcache.SoftPFReq.missRate::cpu.data     0.500004                       # miss rate for SoftPFReq accesses (Ratio)
system.cpu.dcache.SoftPFReq.missRate::total     0.500004                       # miss rate for SoftPFReq accesses (Ratio)
system.cpu.dcache.SoftPFReq.mshrMisses::cpu.data       500000                       # number of SoftPFReq MSHR misses (Count)
system.cpu.dcache.SoftPFReq.mshrMisses::total       500000                       # number of SoftPFReq MSHR misses (Count)
system.cpu.dcache.SoftPFReq.mshrMissLatency::cpu.data  40484908000                       # number of SoftPFReq MSHR miss ticks (Tick)
system.cpu.dcache.SoftPFReq.mshrMissLatency::total  40484908000                       # number of SoftPFReq MSHR miss ticks (Tick)
system.cpu.dcache.SoftPFReq.mshrMissRate::cpu.data     0.500004                       # mshr miss rate for SoftPFReq accesses (Ratio)
system.cpu.dcache.SoftPFReq.mshrMissRate::total     0.500004                       # mshr miss rate for SoftPFReq accesses (Ratio)
system.cpu.dcache.SoftPFReq.avgMshrMissLatency::cpu.data 80969.816000                       # average SoftPFReq mshr miss latency ((Tick/Count))
system.cpu.dcache.SoftPFReq.avgMshrMissLatency::total 80969.816000                       # average SoftPFReq mshr miss latency ((Tick/Count))
system.cpu.dcache.WriteReq.hits::cpu.data     17649691                       # number of WriteReq hits (Count)
system.cpu.dcache.WriteReq.hits::total       17649691                       # number of WriteReq hits (Count)
system.cpu.dcache.WriteReq.misses::cpu.data      2375740                       # number of WriteReq misses (Count)
system.cpu.dcache.WriteReq.misses::total      2375740                       # number of WriteReq misses (Count)
system.cpu.dcache.WriteReq.missLatency::cpu.data 197997808500                       # number of WriteReq miss ticks (Tick)
system.cpu.dcache.WriteReq.missLatency::total 197997808500                       # number of WriteReq miss ticks (Tick)
system.cpu.dcache.WriteReq.accesses::cpu.data     20025431                       # number of WriteReq accesses(hits+misses) (Count)
system.cpu.dcache.WriteReq.accesses::total     20025431                       # number of WriteReq accesses(hits+misses) (Count)
system.cpu.dcache.WriteReq.missRate::cpu.data     0.118636                       # miss rate for WriteReq accesses (Ratio)
system.cpu.dcache.WriteReq.missRate::total     0.118636                       # miss rate for WriteReq accesses (Ratio)
system.cpu.dcache.WriteReq.avgMissLatency::cpu.data 83341.530849                       # average WriteReq miss latency ((Tick/Count))
system.cpu.dcache.WriteReq.avgMissLatency::total 83341.530849                       # average WriteReq miss latency ((Tick/Count))
system.cpu.dcache.WriteReq.mshrMisses::cpu.data      2375740                       # number of WriteReq MSHR misses (Count)
system.cpu.dcache.WriteReq.mshrMisses::total      2375740                       # number of WriteReq MSHR misses (Count)
system.cpu.dcache.WriteReq.mshrMissLatency::cpu.data 196809938500                       # number of WriteReq MSHR miss ticks (Tick)
system.cpu.dcache.WriteReq.mshrMissLatency::total 196809938500                       # number of WriteReq MSHR miss ticks (Tick)
system.cpu.dcache.WriteReq.mshrMissRate::cpu.data     0.118636                       # mshr miss rate for WriteReq accesses (Ratio)
system.cpu.dcache.WriteReq.mshrMissRate::total     0.118636                       # mshr miss rate for WriteReq accesses (Ratio)
system.cpu.dcache.WriteReq.avgMshrMissLatency::cpu.data 82841.530849                       # average WriteReq mshr miss latency ((Tick/Count))
system.cpu.dcache.WriteReq.avgMshrMissLatency::total 82841.530849                       # average WriteReq mshr miss latency ((Tick/Count))
system.cpu.dcache.power_state.pwrStateResidencyTicks::UNDEFINED 538797393750                       # Cumulative time (in ticks) in various power states (Tick)
system.cpu.dcache.tags.tagsInUse          1023.806833                       # Average ticks per tags in use ((Tick/Count))
system.cpu.dcache.tags.totalRefs             56090820                       # Total number of references to valid blocks. (Count)
system.cpu.dcache.tags.sampledRefs            5878318                       # Sample count of references to valid blocks. (Count)
system.cpu.dcache.tags.avgRefs               9.541985                       # Average number of references to valid blocks. ((Count/Count))
system.cpu.dcache.tags.warmupTick              162250                       # The tick when the warmup percentage was hit. (Tick)
system.cpu.dcache.tags.occupancies::cpu.data  1023.806833                       # Average occupied blocks per tick, per requestor ((Count/Tick))
system.cpu.dcache.tags.avgOccs::cpu.data     0.999811                       # Average percentage of cache occupancy ((Ratio/Tick))
system.cpu.dcache.tags.avgOccs::total        0.999811                       # Average percentage of cache occupancy ((Ratio/Tick))
system.cpu.dcache.tags.occupanciesTaskId::1024         1024                       # Occupied blocks per task id (Count)
system.cpu.dcache.tags.ageTaskId_1024::0           42                       # Occupied blocks per task id, per block age (Count)
system.cpu.dcache.tags.ageTaskId_1024::1          607                       # Occupied blocks per task id, per block age (Count)
system.cpu.dcache.tags.ageTaskId_1024::2          374                       # Occupied blocks per task id, per block age (Count)
system.cpu.dcache.tags.ageTaskId_1024::4            1                       # Occupied blocks per task id, per block age (Count)
system.cpu.dcache.tags.ratioOccsTaskId::1024            1                       # Ratio of occupied blocks and all blocks, per task id (Ratio)
system.cpu.dcache.tags.tagAccesses          118059958                       # Number of tag accesses (Count)
system.cpu.dcache.tags.dataAccesses         118059958                       # Number of data accesses (Count)
system.cpu.dcache.tags.power_state.pwrStateResidencyTicks::UNDEFINED 538797393750                       # Cumulative time (in ticks) in various power states (Tick)
system.cpu.dtb_walker_cache.blockedCycles::no_mshrs            0                       # number of cycles access was blocked (Cycle)
system.cpu.dtb_walker_cache.blockedCycles::no_targets            0                       # number of cycles access was blocked (Cycle)
system.cpu.dtb_walker_cache.blockedCauses::no_mshrs            0                       # number of times access was blocked (Count)
system.cpu.dtb_walker_cache.blockedCauses::no_targets            0                       # number of times access was blocked (Count)
system.cpu.dtb_walker_cache.avgBlocked::no_mshrs          nan                       # average number of cycles each access was blocked ((Cycle/Count))
system.cpu.dtb_walker_cache.avgBlocked::no_targets          nan                       # average number of cycles each access was blocked ((Cycle/Count))
system.cpu.dtb_walker_cache.replacements            0                       # number of replacements (Count)
system.cpu.dtb_walker_cache.power_state.pwrStateResidencyTicks::UNDEFINED 538797393750                       # Cumulative time (in ticks) in various power states (Tick)
system.cpu.dtb_walker_cache.tags.tagsInUse            0                       # Average ticks per tags in use ((Tick/Count))
system.cpu.dtb_walker_cache.tags.totalRefs            0                       # Total number of references to valid blocks. (Count)
system.cpu.dtb_walker_cache.tags.sampledRefs            0                       # Sample count of references to valid blocks. (Count)
system.cpu.dtb_walker_cache.tags.avgRefs          nan                       # Average number of references to valid blocks. ((Count/Count))
system.cpu.dtb_walker_cache.tags.warmupTick            0                       # The tick when the warmup percentage was hit. (Tick)
system.cpu.dtb_walker_cache.tags.tagAccesses            0                       # Number of tag accesses (Count)
system.cpu.dtb_walker_cache.tags.dataAccesses            0                       # Number of data accesses (Count)
system.cpu.dtb_walker_cache.tags.power_state.pwrStateResidencyTicks::UNDEFINED 538797393750                       # Cumulative time (in ticks) in various power states (Tick)
system.cpu.exec_context.thread_0.numInsts     89975143                       # Number of instructions committed (Count)
system.cpu.exec_context.thread_0.numOps     167419174                       # Number of ops (including micro ops) committed (Count)
system.cpu.exec_context.thread_0.numIntAluAccesses    121396052                       # Number of integer alu accesses (Count)
system.cpu.exec_context.thread_0.numFpAluAccesses    100025842                       # Number of float alu accesses (Count)
system.cpu.exec_context.thread_0.numVecAluAccesses            0                       # Number of vector alu accesses (Count)
system.cpu.exec_context.thread_0.numCallsReturns         7366                       # Number of times a function call or return occured (Count)
system.cpu.exec_context.thread_0.numCondCtrlInsts      8947901                       # Number of instructions that are conditional controls (Count)
system.cpu.exec_context.thread_0.numIntInsts    121396052                       # Number of integer instructions (Count)
system.cpu.exec_context.thread_0.numFpInsts    100025842                       # Number of float instructions (Count)
system.cpu.exec_context.thread_0.numVecInsts            0                       # Number of vector instructions (Count)
system.cpu.exec_context.thread_0.numIntRegReads    120030737                       # Number of times the integer registers were read (Count)
system.cpu.exec_context.thread_0.numIntRegWrites     48461352                       # Number of times the integer registers were written (Count)
system.cpu.exec_context.thread_0.numFpRegReads    110037830                       # Number of times the floating registers were read (Count)
system.cpu.exec_context.thread_0.numFpRegWrites     78022389                       # Number of times the floating registers were written (Count)
system.cpu.exec_context.thread_0.numVecRegReads            0                       # Number of times the vector registers were read (Count)
system.cpu.exec_context.thread_0.numVecRegWrites            0                       # Number of times the vector registers were written (Count)
system.cpu.exec_context.thread_0.numVecPredRegReads            0                       # Number of times the predicate registers were read (Count)
system.cpu.exec_context.thread_0.numVecPredRegWrites            0                       # Number of times the predicate registers were written (Count)
system.cpu.exec_context.thread_0.numCCRegReads     50800591                       # Number of times the CC registers were read (Count)
system.cpu.exec_context.thread_0.numCCRegWrites     39785757                       # Number of times the CC registers were written (Count)
system.cpu.exec_context.thread_0.numMiscRegReads     80014683                       # Number of times the Misc registers were read (Count)
system.cpu.exec_context.thread_0.numMiscRegWrites           18                       # Number of times the Misc registers were written (Count)
system.cpu.exec_context.thread_0.numMemRefs     58090804                       # Number of memory refs (Count)
system.cpu.exec_context.thread_0.numLoadInsts     36065400                       # Number of load instructions (Count)
system.cpu.exec_context.thread_0.numStoreInsts     22025404                       # Number of store instructions (Count)
system.cpu.exec_context.thread_0.numIdleCycles     0.004000                       # Number of idle cycles (Cycle)
system.cpu.exec_context.thread_0.numBusyCycles 2155189574.996000                       # Number of busy cycles (Cycle)
system.cpu.exec_context.thread_0.notIdleFraction     1.000000                       # Percentage of non-idle cycles (Ratio)
system.cpu.exec_context.thread_0.idleFraction     0.000000                       # Percentage of idle cycles (Ratio)
system.cpu.exec_context.thread_0.numBranches      8962790                       # Number of branches fetched (Count)
system.cpu.exec_context.thread_0.statExecutedInstType::No_OpClass      2005404      1.18%      1.18% # Class of executed instruction. (Count)
system.cpu.exec_context.thread_0.statExecutedInstType::IntAlu     71306719     42.09%     43.27% # Class of executed instruction. (Count)
system.cpu.exec_context.thread_0.statExecutedInstType::IntMult          202      0.00%     43.27% # Class of executed instruction. (Count)
system.cpu.exec_context.thread_0.statExecutedInstType::IntDiv         1577      0.00%     43.27% # Class of executed instruction. (Count)
system.cpu.exec_context.thread_0.statExecutedInstType::FloatAdd     12001439      7.08%     50.36% # Class of executed instruction. (Count)
system.cpu.exec_context.thread_0.statExecutedInstType::FloatCmp            0      0.00%     50.36% # Class of executed instruction. (Count)
system.cpu.exec_context.thread_0.statExecutedInstType::FloatCvt           32      0.00%     50.36% # Class of executed instruction. (Count)
system.cpu.exec_context.thread_0.statExecutedInstType::FloatMult            0      0.00%     50.36% # Class of executed instruction. (Count)
system.cpu.exec_context.thread_0.statExecutedInstType::FloatMultAcc            0      0.00%     50.36% # Class of executed instruction. (Count)
system.cpu.exec_context.thread_0.statExecutedInstType::FloatDiv            0      0.00%     50.36% # Class of executed instruction. (Count)
system.cpu.exec_context.thread_0.statExecutedInstType::FloatMisc            0      0.00%     50.36% # Class of executed instruction. (Count)
system.cpu.exec_context.thread_0.statExecutedInstType::FloatSqrt            0      0.00%     50.36% # Class of executed instruction. (Count)
system.cpu.exec_context.thread_0.statExecutedInstType::SimdAdd          340      0.00%     50.36% # Class of executed instruction. (Count)
system.cpu.exec_context.thread_0.statExecutedInstType::SimdAddAcc            0      0.00%     50.36% # Class of executed instruction. (Count)
system.cpu.exec_context.thread_0.statExecutedInstType::SimdAlu         5067      0.00%     50.36% # Class of executed instruction. (Count)
system.cpu.exec_context.thread_0.statExecutedInstType::SimdCmp            6      0.00%     50.36% # Class of executed instruction. (Count)
system.cpu.exec_context.thread_0.statExecutedInstType::SimdCvt         1234      0.00%     50.36% # Class of executed instruction. (Count)
system.cpu.exec_context.thread_0.statExecutedInstType::SimdMisc         1575      0.00%     50.36% # Class of executed instruction. (Count)
system.cpu.exec_context.thread_0.statExecutedInstType::SimdMult            0      0.00%     50.36% # Class of executed instruction. (Count)
system.cpu.exec_context.thread_0.statExecutedInstType::SimdMultAcc            0      0.00%     50.36% # Class of executed instruction. (Count)
system.cpu.exec_context.thread_0.statExecutedInstType::SimdShift           99      0.00%     50.36% # Class of executed instruction. (Count)
system.cpu.exec_context.thread_0.statExecutedInstType::SimdShiftAcc            0      0.00%     50.36% # Class of executed instruction. (Count)
system.cpu.exec_context.thread_0.statExecutedInstType::SimdDiv            0      0.00%     50.36% # Class of executed instruction. (Count)
system.cpu.exec_context.thread_0.statExecutedInstType::SimdSqrt            0      0.00%     50.36% # Class of executed instruction. (Count)
system.cpu.exec_context.thread_0.statExecutedInstType::SimdFloatAdd     15001880      8.85%     59.22% # Class of executed instruction. (Count)
system.cpu.exec_context.thread_0.statExecutedInstType::SimdFloatAlu            0      0.00%     59.22% # Class of executed instruction. (Count)
system.cpu.exec_context.thread_0.statExecutedInstType::SimdFloatCmp           24      0.00%     59.22% # Class of executed instruction. (Count)
system.cpu.exec_context.thread_0.statExecutedInstType::SimdFloatCvt      3002833      1.77%     60.99% # Class of executed instruction. (Count)
system.cpu.exec_context.thread_0.statExecutedInstType::SimdFloatDiv           15      0.00%     60.99% # Class of executed instruction. (Count)
system.cpu.exec_context.thread_0.statExecutedInstType::SimdFloatMisc            0      0.00%     60.99% # Class of executed instruction. (Count)
system.cpu.exec_context.thread_0.statExecutedInstType::SimdFloatMult      8000971      4.72%     65.71% # Class of executed instruction. (Count)
system.cpu.exec_context.thread_0.statExecutedInstType::SimdFloatMultAcc            0      0.00%     65.71% # Class of executed instruction. (Count)
system.cpu.exec_context.thread_0.statExecutedInstType::SimdFloatSqrt            0      0.00%     65.71% # Class of executed instruction. (Count)
system.cpu.exec_context.thread_0.statExecutedInstType::SimdReduceAdd            0      0.00%     65.71% # Class of executed instruction. (Count)
system.cpu.exec_context.thread_0.statExecutedInstType::SimdReduceAlu            0      0.00%     65.71% # Class of executed instruction. (Count)
system.cpu.exec_context.thread_0.statExecutedInstType::SimdReduceCmp            0      0.00%     65.71% # Class of executed instruction. (Count)
system.cpu.exec_context.thread_0.statExecutedInstType::SimdFloatReduceAdd            0      0.00%     65.71% # Class of executed instruction. (Count)
system.cpu.exec_context.thread_0.statExecutedInstType::SimdFloatReduceCmp            0      0.00%     65.71% # Class of executed instruction. (Count)
system.cpu.exec_context.thread_0.statExecutedInstType::SimdAes            0      0.00%     65.71% # Class of executed instruction. (Count)
system.cpu.exec_context.thread_0.statExecutedInstType::SimdAesMix            0      0.00%     65.71% # Class of executed instruction. (Count)
system.cpu.exec_context.thread_0.statExecutedInstType::SimdSha1Hash            0      0.00%     65.71% # Class of executed instruction. (Count)
system.cpu.exec_context.thread_0.statExecutedInstType::SimdSha1Hash2            0      0.00%     65.71% # Class of executed instruction. (Count)
system.cpu.exec_context.thread_0.statExecutedInstType::SimdSha256Hash            0      0.00%     65.71% # Class of executed instruction. (Count)
system.cpu.exec_context.thread_0.statExecutedInstType::SimdSha256Hash2            0      0.00%     65.71% # Class of executed instruction. (Count)
system.cpu.exec_context.thread_0.statExecutedInstType::SimdShaSigma2            0      0.00%     65.71% # Class of executed instruction. (Count)
system.cpu.exec_context.thread_0.statExecutedInstType::SimdShaSigma3            0      0.00%     65.71% # Class of executed instruction. (Count)
system.cpu.exec_context.thread_0.statExecutedInstType::SimdPredAlu            0      0.00%     65.71% # Class of executed instruction. (Count)
system.cpu.exec_context.thread_0.statExecutedInstType::MemRead      1059063      0.63%     66.34% # Class of executed instruction. (Count)
system.cpu.exec_context.thread_0.statExecutedInstType::MemWrite      3023747      1.78%     68.12% # Class of executed instruction. (Count)
system.cpu.exec_context.thread_0.statExecutedInstType::FloatMemRead     35006337     20.66%     88.78% # Class of executed instruction. (Count)
system.cpu.exec_context.thread_0.statExecutedInstType::FloatMemWrite     19001657     11.22%    100.00% # Class of executed instruction. (Count)
system.cpu.exec_context.thread_0.statExecutedInstType::IprAccess            0      0.00%    100.00% # Class of executed instruction. (Count)
system.cpu.exec_context.thread_0.statExecutedInstType::InstPrefetch            0      0.00%    100.00% # Class of executed instruction. (Count)
system.cpu.exec_context.thread_0.statExecutedInstType::total    169420221                       # Class of executed instruction. (Count)
system.cpu.icache.demandHits::cpu.inst      134159502                       # number of demand (read+write) hits (Count)
system.cpu.icache.demandHits::total         134159502                       # number of demand (read+write) hits (Count)
system.cpu.icache.overallHits::cpu.inst     134159502                       # number of overall hits (Count)
system.cpu.icache.overallHits::total        134159502                       # number of overall hits (Count)
system.cpu.icache.demandMisses::cpu.inst         1611                       # number of demand (read+write) misses (Count)
system.cpu.icache.demandMisses::total            1611                       # number of demand (read+write) misses (Count)
system.cpu.icache.overallMisses::cpu.inst         1611                       # number of overall misses (Count)
system.cpu.icache.overallMisses::total           1611                       # number of overall misses (Count)
system.cpu.icache.demandMissLatency::cpu.inst    105126500                       # number of demand (read+write) miss ticks (Tick)
system.cpu.icache.demandMissLatency::total    105126500                       # number of demand (read+write) miss ticks (Tick)
system.cpu.icache.overallMissLatency::cpu.inst    105126500                       # number of overall miss ticks (Tick)
system.cpu.icache.overallMissLatency::total    105126500                       # number of overall miss ticks (Tick)
system.cpu.icache.demandAccesses::cpu.inst    134161113                       # number of demand (read+write) accesses (Count)
system.cpu.icache.demandAccesses::total     134161113                       # number of demand (read+write) accesses (Count)
system.cpu.icache.overallAccesses::cpu.inst    134161113                       # number of overall (read+write) accesses (Count)
system.cpu.icache.overallAccesses::total    134161113                       # number of overall (read+write) accesses (Count)
system.cpu.icache.demandMissRate::cpu.inst     0.000012                       # miss rate for demand accesses (Ratio)
system.cpu.icache.demandMissRate::total      0.000012                       # miss rate for demand accesses (Ratio)
system.cpu.icache.overallMissRate::cpu.inst     0.000012                       # miss rate for overall accesses (Ratio)
system.cpu.icache.overallMissRate::total     0.000012                       # miss rate for overall accesses (Ratio)
system.cpu.icache.demandAvgMissLatency::cpu.inst 65255.431409                       # average overall miss latency in ticks ((Tick/Count))
system.cpu.icache.demandAvgMissLatency::total 65255.431409                       # average overall miss latency in ticks ((Tick/Count))
system.cpu.icache.overallAvgMissLatency::cpu.inst 65255.431409                       # average overall miss latency ((Tick/Count))
system.cpu.icache.overallAvgMissLatency::total 65255.431409                       # average overall miss latency ((Tick/Count))
system.cpu.icache.blockedCycles::no_mshrs            0                       # number of cycles access was blocked (Cycle)
system.cpu.icache.blockedCycles::no_targets            0                       # number of cycles access was blocked (Cycle)
system.cpu.icache.blockedCauses::no_mshrs            0                       # number of times access was blocked (Count)
system.cpu.icache.blockedCauses::no_targets            0                       # number of times access was blocked (Count)
system.cpu.icache.avgBlocked::no_mshrs            nan                       # average number of cycles each access was blocked ((Cycle/Count))
system.cpu.icache.avgBlocked::no_targets          nan                       # average number of cycles each access was blocked ((Cycle/Count))
system.cpu.icache.writebacks::writebacks         1109                       # number of writebacks (Count)
system.cpu.icache.writebacks::total              1109                       # number of writebacks (Count)
system.cpu.icache.demandMshrMisses::cpu.inst         1611                       # number of demand (read+write) MSHR misses (Count)
system.cpu.icache.demandMshrMisses::total         1611                       # number of demand (read+write) MSHR misses (Count)
system.cpu.icache.overallMshrMisses::cpu.inst         1611                       # number of overall MSHR misses (Count)
system.cpu.icache.overallMshrMisses::total         1611                       # number of overall MSHR misses (Count)
system.cpu.icache.demandMshrMissLatency::cpu.inst    104321000                       # number of demand (read+write) MSHR miss ticks (Tick)
system.cpu.icache.demandMshrMissLatency::total    104321000                       # number of demand (read+write) MSHR miss ticks (Tick)
system.cpu.icache.overallMshrMissLatency::cpu.inst    104321000                       # number of overall MSHR miss ticks (Tick)
system.cpu.icache.overallMshrMissLatency::total    104321000                       # number of overall MSHR miss ticks (Tick)
system.cpu.icache.demandMshrMissRate::cpu.inst     0.000012                       # mshr miss ratio for demand accesses (Ratio)
system.cpu.icache.demandMshrMissRate::total     0.000012                       # mshr miss ratio for demand accesses (Ratio)
system.cpu.icache.overallMshrMissRate::cpu.inst     0.000012                       # mshr miss ratio for overall accesses (Ratio)
system.cpu.icache.overallMshrMissRate::total     0.000012                       # mshr miss ratio for overall accesses (Ratio)
system.cpu.icache.demandAvgMshrMissLatency::cpu.inst 64755.431409                       # average overall mshr miss latency ((Tick/Count))
system.cpu.icache.demandAvgMshrMissLatency::total 64755.431409                       # average overall mshr miss latency ((Tick/Count))
system.cpu.icache.overallAvgMshrMissLatency::cpu.inst 64755.431409                       # average overall mshr miss latency ((Tick/Count))
system.cpu.icache.overallAvgMshrMissLatency::total 64755.431409                       # average overall mshr miss latency ((Tick/Count))
system.cpu.icache.replacements                   1109                       # number of replacements (Count)
system.cpu.icache.ReadReq.hits::cpu.inst    134159502                       # number of ReadReq hits (Count)
system.cpu.icache.ReadReq.hits::total       134159502                       # number of ReadReq hits (Count)
system.cpu.icache.ReadReq.misses::cpu.inst         1611                       # number of ReadReq misses (Count)
system.cpu.icache.ReadReq.misses::total          1611                       # number of ReadReq misses (Count)
system.cpu.icache.ReadReq.missLatency::cpu.inst    105126500                       # number of ReadReq miss ticks (Tick)
system.cpu.icache.ReadReq.missLatency::total    105126500                       # number of ReadReq miss ticks (Tick)
system.cpu.icache.ReadReq.accesses::cpu.inst    134161113                       # number of ReadReq accesses(hits+misses) (Count)
system.cpu.icache.ReadReq.accesses::total    134161113                       # number of ReadReq accesses(hits+misses) (Count)
system.cpu.icache.ReadReq.missRate::cpu.inst     0.000012                       # miss rate for ReadReq accesses (Ratio)
system.cpu.icache.ReadReq.missRate::total     0.000012                       # miss rate for ReadReq accesses (Ratio)
system.cpu.icache.ReadReq.avgMissLatency::cpu.inst 65255.431409                       # average ReadReq miss latency ((Tick/Count))
system.cpu.icache.ReadReq.avgMissLatency::total 65255.431409                       # average ReadReq miss latency ((Tick/Count))
system.cpu.icache.ReadReq.mshrMisses::cpu.inst         1611                       # number of ReadReq MSHR misses (Count)
system.cpu.icache.ReadReq.mshrMisses::total         1611                       # number of ReadReq MSHR misses (Count)
system.cpu.icache.ReadReq.mshrMissLatency::cpu.inst    104321000                       # number of ReadReq MSHR miss ticks (Tick)
system.cpu.icache.ReadReq.mshrMissLatency::total    104321000                       # number of ReadReq MSHR miss ticks (Tick)
system.cpu.icache.ReadReq.mshrMissRate::cpu.inst     0.000012                       # mshr miss rate for ReadReq accesses (Ratio)
system.cpu.icache.ReadReq.mshrMissRate::total     0.000012                       # mshr miss rate for ReadReq accesses (Ratio)
system.cpu.icache.ReadReq.avgMshrMissLatency::cpu.inst 64755.431409                       # average ReadReq mshr miss latency ((Tick/Count))
system.cpu.icache.ReadReq.avgMshrMissLatency::total 64755.431409                       # average ReadReq mshr miss latency ((Tick/Count))
system.cpu.icache.power_state.pwrStateResidencyTicks::UNDEFINED 538797393750                       # Cumulative time (in ticks) in various power states (Tick)
system.cpu.icache.tags.tagsInUse           495.217133                       # Average ticks per tags in use ((Tick/Count))
system.cpu.icache.tags.totalRefs            134161113                       # Total number of references to valid blocks. (Count)
system.cpu.icache.tags.sampledRefs               1611                       # Sample count of references to valid blocks. (Count)
system.cpu.icache.tags.avgRefs           83278.158287                       # Average number of references to valid blocks. ((Count/Count))
system.cpu.icache.tags.warmupTick               85250                       # The tick when the warmup percentage was hit. (Tick)
system.cpu.icache.tags.occupancies::cpu.inst   495.217133                       # Average occupied blocks per tick, per requestor ((Count/Tick))
system.cpu.icache.tags.avgOccs::cpu.inst     0.967221                       # Average percentage of cache occupancy ((Ratio/Tick))
system.cpu.icache.tags.avgOccs::total        0.967221                       # Average percentage of cache occupancy ((Ratio/Tick))
system.cpu.icache.tags.occupanciesTaskId::1024          502                       # Occupied blocks per task id (Count)
system.cpu.icache.tags.ageTaskId_1024::0           71                       # Occupied blocks per task id, per block age (Count)
system.cpu.icache.tags.ageTaskId_1024::1           35                       # Occupied blocks per task id, per block age (Count)
system.cpu.icache.tags.ageTaskId_1024::4          396                       # Occupied blocks per task id, per block age (Count)
system.cpu.icache.tags.ratioOccsTaskId::1024     0.980469                       # Ratio of occupied blocks and all blocks, per task id (Ratio)
system.cpu.icache.tags.tagAccesses          268323837                       # Number of tag accesses (Count)
system.cpu.icache.tags.dataAccesses         268323837                       # Number of data accesses (Count)
system.cpu.icache.tags.power_state.pwrStateResidencyTicks::UNDEFINED 538797393750                       # Cumulative time (in ticks) in various power states (Tick)
system.cpu.interrupts.clk_domain.clock           4000                       # Clock period in ticks (Tick)
system.cpu.itb_walker_cache.blockedCycles::no_mshrs            0                       # number of cycles access was blocked (Cycle)
system.cpu.itb_walker_cache.blockedCycles::no_targets            0                       # number of cycles access was blocked (Cycle)
system.cpu.itb_walker_cache.blockedCauses::no_mshrs            0                       # number of times access was blocked (Count)
system.cpu.itb_walker_cache.blockedCauses::no_targets            0                       # number of times access was blocked (Count)
system.cpu.itb_walker_cache.avgBlocked::no_mshrs          nan                       # average number of cycles each access was blocked ((Cycle/Count))
system.cpu.itb_walker_cache.avgBlocked::no_targets          nan                       # average number of cycles each access was blocked ((Cycle/Count))
system.cpu.itb_walker_cache.replacements            0                       # number of replacements (Count)
system.cpu.itb_walker_cache.power_state.pwrStateResidencyTicks::UNDEFINED 538797393750                       # Cumulative time (in ticks) in various power states (Tick)
system.cpu.itb_walker_cache.tags.tagsInUse            0                       # Average ticks per tags in use ((Tick/Count))
system.cpu.itb_walker_cache.tags.totalRefs            0                       # Total number of references to valid blocks. (Count)
system.cpu.itb_walker_cache.tags.sampledRefs            0                       # Sample count of references to valid blocks. (Count)
system.cpu.itb_walker_cache.tags.avgRefs          nan                       # Average number of references to valid blocks. ((Count/Count))
system.cpu.itb_walker_cache.tags.warmupTick            0                       # The tick when the warmup percentage was hit. (Tick)
system.cpu.itb_walker_cache.tags.tagAccesses            0                       # Number of tag accesses (Count)
system.cpu.itb_walker_cache.tags.dataAccesses            0                       # Number of data accesses (Count)
system.cpu.itb_walker_cache.tags.power_state.pwrStateResidencyTicks::UNDEFINED 538797393750                       # Cumulative time (in ticks) in various power states (Tick)
system.cpu.mmu.dtb.rdAccesses                36065439                       # TLB accesses on read requests (Count)
system.cpu.mmu.dtb.wrAccesses                22025426                       # TLB accesses on write requests (Count)
system.cpu.mmu.dtb.rdMisses                     54955                       # TLB misses on read requests (Count)
system.cpu.mmu.dtb.wrMisses                     37170                       # TLB misses on write requests (Count)
system.cpu.mmu.dtb.walker.power_state.pwrStateResidencyTicks::UNDEFINED 538797393750                       # Cumulative time (in ticks) in various power states (Tick)
system.cpu.mmu.itb.rdAccesses                       0                       # TLB accesses on read requests (Count)
system.cpu.mmu.itb.wrAccesses               134161163                       # TLB accesses on write requests (Count)
system.cpu.mmu.itb.rdMisses                         0                       # TLB misses on read requests (Count)
system.cpu.mmu.itb.wrMisses                       175                       # TLB misses on write requests (Count)
system.cpu.mmu.itb.walker.power_state.pwrStateResidencyTicks::UNDEFINED 538797393750                       # Cumulative time (in ticks) in various power states (Tick)
system.cpu.power_state.pwrStateResidencyTicks::ON 538797393750                       # Cumulative time (in ticks) in various power states (Tick)
system.cpu.thread_0.numInsts                        0                       # Number of Instructions committed (Count)
system.cpu.thread_0.numOps                          0                       # Number of Ops committed (Count)
system.cpu.thread_0.numMemRefs                      0                       # Number of Memory References (Count)
system.cpu.workload.numSyscalls                  1002                       # Number of system calls (Count)
system.cpu_clk_domain.clock                       250                       # Clock period in ticks (Tick)
system.cpu_voltage_domain.voltage                   1                       # Voltage in Volts (Volt)
system.l2.demandHits::cpu.inst                    343                       # number of demand (read+write) hits (Count)
system.l2.demandHits::cpu.data                    296                       # number of demand (read+write) hits (Count)
system.l2.demandHits::total                       639                       # number of demand (read+write) hits (Count)
system.l2.overallHits::cpu.inst                   343                       # number of overall hits (Count)
system.l2.overallHits::cpu.data                   296                       # number of overall hits (Count)
system.l2.overallHits::total                      639                       # number of overall hits (Count)
system.l2.demandMisses::cpu.inst                 1268                       # number of demand (read+write) misses (Count)
system.l2.demandMisses::cpu.data              5878022                       # number of demand (read+write) misses (Count)
system.l2.demandMisses::total                 5879290                       # number of demand (read+write) misses (Count)
system.l2.overallMisses::cpu.inst                1268                       # number of overall misses (Count)
system.l2.overallMisses::cpu.data             5878022                       # number of overall misses (Count)
system.l2.overallMisses::total                5879290                       # number of overall misses (Count)
system.l2.demandMissLatency::cpu.inst       101308000                       # number of demand (read+write) miss ticks (Tick)
system.l2.demandMissLatency::cpu.data    479641964000                       # number of demand (read+write) miss ticks (Tick)
system.l2.demandMissLatency::total       479743272000                       # number of demand (read+write) miss ticks (Tick)
system.l2.overallMissLatency::cpu.inst      101308000                       # number of overall miss ticks (Tick)
system.l2.overallMissLatency::cpu.data   479641964000                       # number of overall miss ticks (Tick)
system.l2.overallMissLatency::total      479743272000                       # number of overall miss ticks (Tick)
system.l2.demandAccesses::cpu.inst               1611                       # number of demand (read+write) accesses (Count)
system.l2.demandAccesses::cpu.data            5878318                       # number of demand (read+write) accesses (Count)
system.l2.demandAccesses::total               5879929                       # number of demand (read+write) accesses (Count)
system.l2.overallAccesses::cpu.inst              1611                       # number of overall (read+write) accesses (Count)
system.l2.overallAccesses::cpu.data           5878318                       # number of overall (read+write) accesses (Count)
system.l2.overallAccesses::total              5879929                       # number of overall (read+write) accesses (Count)
system.l2.demandMissRate::cpu.inst           0.787089                       # miss rate for demand accesses (Ratio)
system.l2.demandMissRate::cpu.data           0.999950                       # miss rate for demand accesses (Ratio)
system.l2.demandMissRate::total              0.999891                       # miss rate for demand accesses (Ratio)
system.l2.overallMissRate::cpu.inst          0.787089                       # miss rate for overall accesses (Ratio)
system.l2.overallMissRate::cpu.data          0.999950                       # miss rate for overall accesses (Ratio)
system.l2.overallMissRate::total             0.999891                       # miss rate for overall accesses (Ratio)
system.l2.demandAvgMissLatency::cpu.inst 79895.899054                       # average overall miss latency in ticks ((Tick/Count))
system.l2.demandAvgMissLatency::cpu.data 81599.212116                       # average overall miss latency in ticks ((Tick/Count))
system.l2.demandAvgMissLatency::total    81598.844758                       # average overall miss latency in ticks ((Tick/Count))
system.l2.overallAvgMissLatency::cpu.inst 79895.899054                       # average overall miss latency ((Tick/Count))
system.l2.overallAvgMissLatency::cpu.data 81599.212116                       # average overall miss latency ((Tick/Count))
system.l2.overallAvgMissLatency::total   81598.844758                       # average overall miss latency ((Tick/Count))
system.l2.blockedCycles::no_mshrs                   0                       # number of cycles access was blocked (Cycle)
system.l2.blockedCycles::no_targets                 0                       # number of cycles access was blocked (Cycle)
system.l2.blockedCauses::no_mshrs                   0                       # number of times access was blocked (Count)
system.l2.blockedCauses::no_targets                 0                       # number of times access was blocked (Count)
system.l2.avgBlocked::no_mshrs                    nan                       # average number of cycles each access was blocked ((Cycle/Count))
system.l2.avgBlocked::no_targets                  nan                       # average number of cycles each access was blocked ((Cycle/Count))
system.l2.writebacks::writebacks              2500738                       # number of writebacks (Count)
system.l2.writebacks::total                   2500738                       # number of writebacks (Count)
system.l2.demandMshrMisses::cpu.inst             1268                       # number of demand (read+write) MSHR misses (Count)
system.l2.demandMshrMisses::cpu.data          5878022                       # number of demand (read+write) MSHR misses (Count)
system.l2.demandMshrMisses::total             5879290                       # number of demand (read+write) MSHR misses (Count)
system.l2.overallMshrMisses::cpu.inst            1268                       # number of overall MSHR misses (Count)
system.l2.overallMshrMisses::cpu.data         5878022                       # number of overall MSHR misses (Count)
system.l2.overallMshrMisses::total            5879290                       # number of overall MSHR misses (Count)
system.l2.demandMshrMissLatency::cpu.inst     94968000                       # number of demand (read+write) MSHR miss ticks (Tick)
system.l2.demandMshrMissLatency::cpu.data 450251854000                       # number of demand (read+write) MSHR miss ticks (Tick)
system.l2.demandMshrMissLatency::total   450346822000                       # number of demand (read+write) MSHR miss ticks (Tick)
system.l2.overallMshrMissLatency::cpu.inst     94968000                       # number of overall MSHR miss ticks (Tick)
system.l2.overallMshrMissLatency::cpu.data 450251854000                       # number of overall MSHR miss ticks (Tick)
system.l2.overallMshrMissLatency::total  450346822000                       # number of overall MSHR miss ticks (Tick)
system.l2.demandMshrMissRate::cpu.inst       0.787089                       # mshr miss ratio for demand accesses (Ratio)
system.l2.demandMshrMissRate::cpu.data       0.999950                       # mshr miss ratio for demand accesses (Ratio)
system.l2.demandMshrMissRate::total          0.999891                       # mshr miss ratio for demand accesses (Ratio)
system.l2.overallMshrMissRate::cpu.inst      0.787089                       # mshr miss ratio for overall accesses (Ratio)
system.l2.overallMshrMissRate::cpu.data      0.999950                       # mshr miss ratio for overall accesses (Ratio)
system.l2.overallMshrMissRate::total         0.999891                       # mshr miss ratio for overall accesses (Ratio)
system.l2.demandAvgMshrMissLatency::cpu.inst 74895.899054                       # average overall mshr miss latency ((Tick/Count))
system.l2.demandAvgMshrMissLatency::cpu.data 76599.212116                       # average overall mshr miss latency ((Tick/Count))
system.l2.demandAvgMshrMissLatency::total 76598.844758                       # average overall mshr miss latency ((Tick/Count))
system.l2.overallAvgMshrMissLatency::cpu.inst 74895.899054                       # average overall mshr miss latency ((Tick/Count))
system.l2.overallAvgMshrMissLatency::cpu.data 76599.212116                       # average overall mshr miss latency ((Tick/Count))
system.l2.overallAvgMshrMissLatency::total 76598.844758                       # average overall mshr miss latency ((Tick/Count))
system.l2.replacements                        5846706                       # number of replacements (Count)
system.l2.CleanEvict.mshrMisses::writebacks            4                       # number of CleanEvict MSHR misses (Count)
system.l2.CleanEvict.mshrMisses::total              4                       # number of CleanEvict MSHR misses (Count)
system.l2.CleanEvict.mshrMissRate::writebacks          inf                       # mshr miss rate for CleanEvict accesses (Ratio)
system.l2.CleanEvict.mshrMissRate::total          inf                       # mshr miss rate for CleanEvict accesses (Ratio)
system.l2.ReadCleanReq.hits::cpu.inst             343                       # number of ReadCleanReq hits (Count)
system.l2.ReadCleanReq.hits::total                343                       # number of ReadCleanReq hits (Count)
system.l2.ReadCleanReq.misses::cpu.inst          1268                       # number of ReadCleanReq misses (Count)
system.l2.ReadCleanReq.misses::total             1268                       # number of ReadCleanReq misses (Count)
system.l2.ReadCleanReq.missLatency::cpu.inst    101308000                       # number of ReadCleanReq miss ticks (Tick)
system.l2.ReadCleanReq.missLatency::total    101308000                       # number of ReadCleanReq miss ticks (Tick)
system.l2.ReadCleanReq.accesses::cpu.inst         1611                       # number of ReadCleanReq accesses(hits+misses) (Count)
system.l2.ReadCleanReq.accesses::total           1611                       # number of ReadCleanReq accesses(hits+misses) (Count)
system.l2.ReadCleanReq.missRate::cpu.inst     0.787089                       # miss rate for ReadCleanReq accesses (Ratio)
system.l2.ReadCleanReq.missRate::total       0.787089                       # miss rate for ReadCleanReq accesses (Ratio)
system.l2.ReadCleanReq.avgMissLatency::cpu.inst 79895.899054                       # average ReadCleanReq miss latency ((Tick/Count))
system.l2.ReadCleanReq.avgMissLatency::total 79895.899054                       # average ReadCleanReq miss latency ((Tick/Count))
system.l2.ReadCleanReq.mshrMisses::cpu.inst         1268                       # number of ReadCleanReq MSHR misses (Count)
system.l2.ReadCleanReq.mshrMisses::total         1268                       # number of ReadCleanReq MSHR misses (Count)
system.l2.ReadCleanReq.mshrMissLatency::cpu.inst     94968000                       # number of ReadCleanReq MSHR miss ticks (Tick)
system.l2.ReadCleanReq.mshrMissLatency::total     94968000                       # number of ReadCleanReq MSHR miss ticks (Tick)
system.l2.ReadCleanReq.mshrMissRate::cpu.inst     0.787089                       # mshr miss rate for ReadCleanReq accesses (Ratio)
system.l2.ReadCleanReq.mshrMissRate::total     0.787089                       # mshr miss rate for ReadCleanReq accesses (Ratio)
system.l2.ReadCleanReq.avgMshrMissLatency::cpu.inst 74895.899054                       # average ReadCleanReq mshr miss latency ((Tick/Count))
system.l2.ReadCleanReq.avgMshrMissLatency::total 74895.899054                       # average ReadCleanReq mshr miss latency ((Tick/Count))
system.l2.ReadExReq.hits::cpu.data                 44                       # number of ReadExReq hits (Count)
system.l2.ReadExReq.hits::total                    44                       # number of ReadExReq hits (Count)
system.l2.ReadExReq.misses::cpu.data          2375696                       # number of ReadExReq misses (Count)
system.l2.ReadExReq.misses::total             2375696                       # number of ReadExReq misses (Count)
system.l2.ReadExReq.missLatency::cpu.data 195027901750                       # number of ReadExReq miss ticks (Tick)
system.l2.ReadExReq.missLatency::total   195027901750                       # number of ReadExReq miss ticks (Tick)
system.l2.ReadExReq.accesses::cpu.data        2375740                       # number of ReadExReq accesses(hits+misses) (Count)
system.l2.ReadExReq.accesses::total           2375740                       # number of ReadExReq accesses(hits+misses) (Count)
system.l2.ReadExReq.missRate::cpu.data       0.999981                       # miss rate for ReadExReq accesses (Ratio)
system.l2.ReadExReq.missRate::total          0.999981                       # miss rate for ReadExReq accesses (Ratio)
system.l2.ReadExReq.avgMissLatency::cpu.data 82092.953707                       # average ReadExReq miss latency ((Tick/Count))
system.l2.ReadExReq.avgMissLatency::total 82092.953707                       # average ReadExReq miss latency ((Tick/Count))
system.l2.ReadExReq.mshrMisses::cpu.data      2375696                       # number of ReadExReq MSHR misses (Count)
system.l2.ReadExReq.mshrMisses::total         2375696                       # number of ReadExReq MSHR misses (Count)
system.l2.ReadExReq.mshrMissLatency::cpu.data 183149421750                       # number of ReadExReq MSHR miss ticks (Tick)
system.l2.ReadExReq.mshrMissLatency::total 183149421750                       # number of ReadExReq MSHR miss ticks (Tick)
system.l2.ReadExReq.mshrMissRate::cpu.data     0.999981                       # mshr miss rate for ReadExReq accesses (Ratio)
system.l2.ReadExReq.mshrMissRate::total      0.999981                       # mshr miss rate for ReadExReq accesses (Ratio)
system.l2.ReadExReq.avgMshrMissLatency::cpu.data 77092.953707                       # average ReadExReq mshr miss latency ((Tick/Count))
system.l2.ReadExReq.avgMshrMissLatency::total 77092.953707                       # average ReadExReq mshr miss latency ((Tick/Count))
system.l2.ReadSharedReq.hits::cpu.data            252                       # number of ReadSharedReq hits (Count)
system.l2.ReadSharedReq.hits::total               252                       # number of ReadSharedReq hits (Count)
system.l2.ReadSharedReq.misses::cpu.data      3502326                       # number of ReadSharedReq misses (Count)
system.l2.ReadSharedReq.misses::total         3502326                       # number of ReadSharedReq misses (Count)
system.l2.ReadSharedReq.missLatency::cpu.data 284614062250                       # number of ReadSharedReq miss ticks (Tick)
system.l2.ReadSharedReq.missLatency::total 284614062250                       # number of ReadSharedReq miss ticks (Tick)
system.l2.ReadSharedReq.accesses::cpu.data      3502578                       # number of ReadSharedReq accesses(hits+misses) (Count)
system.l2.ReadSharedReq.accesses::total       3502578                       # number of ReadSharedReq accesses(hits+misses) (Count)
system.l2.ReadSharedReq.missRate::cpu.data     0.999928                       # miss rate for ReadSharedReq accesses (Ratio)
system.l2.ReadSharedReq.missRate::total      0.999928                       # miss rate for ReadSharedReq accesses (Ratio)
system.l2.ReadSharedReq.avgMissLatency::cpu.data 81264.297570                       # average ReadSharedReq miss latency ((Tick/Count))
system.l2.ReadSharedReq.avgMissLatency::total 81264.297570                       # average ReadSharedReq miss latency ((Tick/Count))
system.l2.ReadSharedReq.mshrMisses::cpu.data      3502326                       # number of ReadSharedReq MSHR misses (Count)
system.l2.ReadSharedReq.mshrMisses::total      3502326                       # number of ReadSharedReq MSHR misses (Count)
system.l2.ReadSharedReq.mshrMissLatency::cpu.data 267102432250                       # number of ReadSharedReq MSHR miss ticks (Tick)
system.l2.ReadSharedReq.mshrMissLatency::total 267102432250                       # number of ReadSharedReq MSHR miss ticks (Tick)
system.l2.ReadSharedReq.mshrMissRate::cpu.data     0.999928                       # mshr miss rate for ReadSharedReq accesses (Ratio)
system.l2.ReadSharedReq.mshrMissRate::total     0.999928                       # mshr miss rate for ReadSharedReq accesses (Ratio)
system.l2.ReadSharedReq.avgMshrMissLatency::cpu.data 76264.297570                       # average ReadSharedReq mshr miss latency ((Tick/Count))
system.l2.ReadSharedReq.avgMshrMissLatency::total 76264.297570                       # average ReadSharedReq mshr miss latency ((Tick/Count))
system.l2.WritebackClean.hits::writebacks         1109                       # number of WritebackClean hits (Count)
system.l2.WritebackClean.hits::total             1109                       # number of WritebackClean hits (Count)
system.l2.WritebackClean.accesses::writebacks         1109                       # number of WritebackClean accesses(hits+misses) (Count)
system.l2.WritebackClean.accesses::total         1109                       # number of WritebackClean accesses(hits+misses) (Count)
system.l2.WritebackDirty.hits::writebacks      2500906                       # number of WritebackDirty hits (Count)
system.l2.WritebackDirty.hits::total          2500906                       # number of WritebackDirty hits (Count)
system.l2.WritebackDirty.accesses::writebacks      2500906                       # number of WritebackDirty accesses(hits+misses) (Count)
system.l2.WritebackDirty.accesses::total      2500906                       # number of WritebackDirty accesses(hits+misses) (Count)
system.l2.power_state.pwrStateResidencyTicks::UNDEFINED 538797393750                       # Cumulative time (in ticks) in various power states (Tick)
system.l2.tags.tagsInUse                 32665.289638                       # Average ticks per tags in use ((Tick/Count))
system.l2.tags.totalRefs                     11758328                       # Total number of references to valid blocks. (Count)
system.l2.tags.sampledRefs                    5879474                       # Sample count of references to valid blocks. (Count)
system.l2.tags.avgRefs                       1.999895                       # Average number of references to valid blocks. ((Count/Count))
system.l2.tags.warmupTick                       80000                       # The tick when the warmup percentage was hit. (Tick)
system.l2.tags.occupancies::writebacks       0.532411                       # Average occupied blocks per tick, per requestor ((Count/Tick))
system.l2.tags.occupancies::cpu.inst         6.661993                       # Average occupied blocks per tick, per requestor ((Count/Tick))
system.l2.tags.occupancies::cpu.data     32658.095234                       # Average occupied blocks per tick, per requestor ((Count/Tick))
system.l2.tags.avgOccs::writebacks           0.000016                       # Average percentage of cache occupancy ((Ratio/Tick))
system.l2.tags.avgOccs::cpu.inst             0.000203                       # Average percentage of cache occupancy ((Ratio/Tick))
system.l2.tags.avgOccs::cpu.data             0.996646                       # Average percentage of cache occupancy ((Ratio/Tick))
system.l2.tags.avgOccs::total                0.996866                       # Average percentage of cache occupancy ((Ratio/Tick))
system.l2.tags.occupanciesTaskId::1024          32768                       # Occupied blocks per task id (Count)
system.l2.tags.ageTaskId_1024::0                  184                       # Occupied blocks per task id, per block age (Count)
system.l2.tags.ageTaskId_1024::1                  780                       # Occupied blocks per task id, per block age (Count)
system.l2.tags.ageTaskId_1024::2                 7295                       # Occupied blocks per task id, per block age (Count)
system.l2.tags.ageTaskId_1024::3                24509                       # Occupied blocks per task id, per block age (Count)
system.l2.tags.ratioOccsTaskId::1024                1                       # Ratio of occupied blocks and all blocks, per task id (Ratio)
system.l2.tags.tagAccesses                   99946130                       # Number of tag accesses (Count)
system.l2.tags.dataAccesses                  99946130                       # Number of data accesses (Count)
system.l2.tags.power_state.pwrStateResidencyTicks::UNDEFINED 538797393750                       # Cumulative time (in ticks) in various power states (Tick)
system.mem_ctrls0.avgPriority_writebacks::samples   2500756.00                       # Average QoS priority value for accepted requests (Count)
system.mem_ctrls0.avgPriority_cpu.inst::samples      1238.00                       # Average QoS priority value for accepted requests (Count)
system.mem_ctrls0.avgPriority_cpu.data::samples   5878071.00                       # Average QoS priority value for accepted requests (Count)
system.mem_ctrls0.priorityMinLatency     0.000000020000                       # per QoS priority minimum request to response latency (Second)
system.mem_ctrls0.priorityMaxLatency     0.001167878000                       # per QoS priority maximum request to response latency (Second)
system.mem_ctrls0.numReadWriteTurnArounds       146138                       # Number of turnarounds from READ to WRITE (Count)
system.mem_ctrls0.numWriteReadTurnArounds       146138                       # Number of turnarounds from WRITE to READ (Count)
system.mem_ctrls0.numStayReadState           10140574                       # Number of times bus staying in READ state (Count)
system.mem_ctrls0.numStayWriteState           2354647                       # Number of times bus staying in WRITE state (Count)
system.mem_ctrls0.readReqs                    2939664                       # Number of read requests accepted (Count)
system.mem_ctrls0.writeReqs                   1250378                       # Number of write requests accepted (Count)
system.mem_ctrls0.readBursts                  5879328                       # Number of controller read bursts, including those serviced by the write queue (Count)
system.mem_ctrls0.writeBursts                 2500756                       # Number of controller write bursts, including those merged in the write queue (Count)
system.mem_ctrls0.servicedByWrQ                    19                       # Number of controller read bursts serviced by the write queue (Count)
system.mem_ctrls0.mergedWrBursts                    0                       # Number of controller write bursts merged with an existing one (Count)
system.mem_ctrls0.neitherReadNorWriteReqs            0                       # Number of requests that are neither read nor write (Count)
system.mem_ctrls0.avgRdQLen                      2.18                       # Average read queue length when enqueuing ((Count/Tick))
system.mem_ctrls0.avgWrQLen                     25.29                       # Average write queue length when enqueuing ((Count/Tick))
system.mem_ctrls0.numRdRetry                        0                       # Number of times read queue was full causing retry (Count)
system.mem_ctrls0.numWrRetry                        0                       # Number of times write queue was full causing retry (Count)
system.mem_ctrls0.readPktSize::0                    0                       # Read request sizes (log2) (Count)
system.mem_ctrls0.readPktSize::1                    0                       # Read request sizes (log2) (Count)
system.mem_ctrls0.readPktSize::2                    0                       # Read request sizes (log2) (Count)
system.mem_ctrls0.readPktSize::3                    0                       # Read request sizes (log2) (Count)
system.mem_ctrls0.readPktSize::4                    0                       # Read request sizes (log2) (Count)
system.mem_ctrls0.readPktSize::5              5879328                       # Read request sizes (log2) (Count)
system.mem_ctrls0.readPktSize::6                    0                       # Read request sizes (log2) (Count)
system.mem_ctrls0.writePktSize::0                   0                       # Write request sizes (log2) (Count)
system.mem_ctrls0.writePktSize::1                   0                       # Write request sizes (log2) (Count)
system.mem_ctrls0.writePktSize::2                   0                       # Write request sizes (log2) (Count)
system.mem_ctrls0.writePktSize::3                   0                       # Write request sizes (log2) (Count)
system.mem_ctrls0.writePktSize::4                   0                       # Write request sizes (log2) (Count)
system.mem_ctrls0.writePktSize::5             2500756                       # Write request sizes (log2) (Count)
system.mem_ctrls0.writePktSize::6                   0                       # Write request sizes (log2) (Count)
system.mem_ctrls0.rdQLenPdf::0                2689658                       # What read queue length does an incoming req see (Count)
system.mem_ctrls0.rdQLenPdf::1                2689657                       # What read queue length does an incoming req see (Count)
system.mem_ctrls0.rdQLenPdf::2                 249997                       # What read queue length does an incoming req see (Count)
system.mem_ctrls0.rdQLenPdf::3                 249997                       # What read queue length does an incoming req see (Count)
system.mem_ctrls0.rdQLenPdf::4                      0                       # What read queue length does an incoming req see (Count)
system.mem_ctrls0.rdQLenPdf::5                      0                       # What read queue length does an incoming req see (Count)
system.mem_ctrls0.rdQLenPdf::6                      0                       # What read queue length does an incoming req see (Count)
system.mem_ctrls0.rdQLenPdf::7                      0                       # What read queue length does an incoming req see (Count)
system.mem_ctrls0.rdQLenPdf::8                      0                       # What read queue length does an incoming req see (Count)
system.mem_ctrls0.rdQLenPdf::9                      0                       # What read queue length does an incoming req see (Count)
system.mem_ctrls0.rdQLenPdf::10                     0                       # What read queue length does an incoming req see (Count)
system.mem_ctrls0.rdQLenPdf::11                     0                       # What read queue length does an incoming req see (Count)
system.mem_ctrls0.rdQLenPdf::12                     0                       # What read queue length does an incoming req see (Count)
system.mem_ctrls0.rdQLenPdf::13                     0                       # What read queue length does an incoming req see (Count)
system.mem_ctrls0.rdQLenPdf::14                     0                       # What read queue length does an incoming req see (Count)
system.mem_ctrls0.rdQLenPdf::15                     0                       # What read queue length does an incoming req see (Count)
system.mem_ctrls0.rdQLenPdf::16                     0                       # What read queue length does an incoming req see (Count)
system.mem_ctrls0.rdQLenPdf::17                     0                       # What read queue length does an incoming req see (Count)
system.mem_ctrls0.rdQLenPdf::18                     0                       # What read queue length does an incoming req see (Count)
system.mem_ctrls0.rdQLenPdf::19                     0                       # What read queue length does an incoming req see (Count)
system.mem_ctrls0.rdQLenPdf::20                     0                       # What read queue length does an incoming req see (Count)
system.mem_ctrls0.rdQLenPdf::21                     0                       # What read queue length does an incoming req see (Count)
system.mem_ctrls0.rdQLenPdf::22                     0                       # What read queue length does an incoming req see (Count)
system.mem_ctrls0.rdQLenPdf::23                     0                       # What read queue length does an incoming req see (Count)
system.mem_ctrls0.rdQLenPdf::24                     0                       # What read queue length does an incoming req see (Count)
system.mem_ctrls0.rdQLenPdf::25                     0                       # What read queue length does an incoming req see (Count)
system.mem_ctrls0.rdQLenPdf::26                     0                       # What read queue length does an incoming req see (Count)
system.mem_ctrls0.rdQLenPdf::27                     0                       # What read queue length does an incoming req see (Count)
system.mem_ctrls0.rdQLenPdf::28                     0                       # What read queue length does an incoming req see (Count)
system.mem_ctrls0.rdQLenPdf::29                     0                       # What read queue length does an incoming req see (Count)
system.mem_ctrls0.rdQLenPdf::30                     0                       # What read queue length does an incoming req see (Count)
system.mem_ctrls0.rdQLenPdf::31                     0                       # What read queue length does an incoming req see (Count)
system.mem_ctrls0.rdQLenPdf::32                     0                       # What read queue length does an incoming req see (Count)
system.mem_ctrls0.rdQLenPdf::33                     0                       # What read queue length does an incoming req see (Count)
system.mem_ctrls0.rdQLenPdf::34                     0                       # What read queue length does an incoming req see (Count)
system.mem_ctrls0.rdQLenPdf::35                     0                       # What read queue length does an incoming req see (Count)
system.mem_ctrls0.rdQLenPdf::36                     0                       # What read queue length does an incoming req see (Count)
system.mem_ctrls0.rdQLenPdf::37                     0                       # What read queue length does an incoming req see (Count)
system.mem_ctrls0.rdQLenPdf::38                     0                       # What read queue length does an incoming req see (Count)
system.mem_ctrls0.rdQLenPdf::39                     0                       # What read queue length does an incoming req see (Count)
system.mem_ctrls0.rdQLenPdf::40                     0                       # What read queue length does an incoming req see (Count)
system.mem_ctrls0.rdQLenPdf::41                     0                       # What read queue length does an incoming req see (Count)
system.mem_ctrls0.rdQLenPdf::42                     0                       # What read queue length does an incoming req see (Count)
system.mem_ctrls0.rdQLenPdf::43                     0                       # What read queue length does an incoming req see (Count)
system.mem_ctrls0.rdQLenPdf::44                     0                       # What read queue length does an incoming req see (Count)
system.mem_ctrls0.rdQLenPdf::45                     0                       # What read queue length does an incoming req see (Count)
system.mem_ctrls0.rdQLenPdf::46                     0                       # What read queue length does an incoming req see (Count)
system.mem_ctrls0.rdQLenPdf::47                     0                       # What read queue length does an incoming req see (Count)
system.mem_ctrls0.rdQLenPdf::48                     0                       # What read queue length does an incoming req see (Count)
system.mem_ctrls0.rdQLenPdf::49                     0                       # What read queue length does an incoming req see (Count)
system.mem_ctrls0.rdQLenPdf::50                     0                       # What read queue length does an incoming req see (Count)
system.mem_ctrls0.rdQLenPdf::51                     0                       # What read queue length does an incoming req see (Count)
system.mem_ctrls0.rdQLenPdf::52                     0                       # What read queue length does an incoming req see (Count)
system.mem_ctrls0.rdQLenPdf::53                     0                       # What read queue length does an incoming req see (Count)
system.mem_ctrls0.rdQLenPdf::54                     0                       # What read queue length does an incoming req see (Count)
system.mem_ctrls0.rdQLenPdf::55                     0                       # What read queue length does an incoming req see (Count)
system.mem_ctrls0.rdQLenPdf::56                     0                       # What read queue length does an incoming req see (Count)
system.mem_ctrls0.rdQLenPdf::57                     0                       # What read queue length does an incoming req see (Count)
system.mem_ctrls0.rdQLenPdf::58                     0                       # What read queue length does an incoming req see (Count)
system.mem_ctrls0.rdQLenPdf::59                     0                       # What read queue length does an incoming req see (Count)
system.mem_ctrls0.rdQLenPdf::60                     0                       # What read queue length does an incoming req see (Count)
system.mem_ctrls0.rdQLenPdf::61                     0                       # What read queue length does an incoming req see (Count)
system.mem_ctrls0.rdQLenPdf::62                     0                       # What read queue length does an incoming req see (Count)
system.mem_ctrls0.rdQLenPdf::63                     0                       # What read queue length does an incoming req see (Count)
system.mem_ctrls0.wrQLenPdf::0                      1                       # What write queue length does an incoming req see (Count)
[...]
system.mem_ctrls1.dram.perBankRdBursts::11       367692                       # Per bank write bursts (Count)
system.mem_ctrls1.dram.perBankRdBursts::12       367698                       # Per bank write bursts (Count)
system.mem_ctrls1.dram.perBankRdBursts::13       367688                       # Per bank write bursts (Count)
system.mem_ctrls1.dram.perBankRdBursts::14       367709                       # Per bank write bursts (Count)
system.mem_ctrls1.dram.perBankRdBursts::15       367348                       # Per bank write bursts (Count)
system.mem_ctrls1.dram.perBankWrBursts::0       156192                       # Per bank write bursts (Count)
system.mem_ctrls1.dram.perBankWrBursts::1       156200                       # Per bank write bursts (Count)
system.mem_ctrls1.dram.perBankWrBursts::2       156196                       # Per bank write bursts (Count)
system.mem_ctrls1.dram.perBankWrBursts::3       156206                       # Per bank write bursts (Count)
system.mem_ctrls1.dram.perBankWrBursts::4       156222                       # Per bank write bursts (Count)
system.mem_ctrls1.dram.perBankWrBursts::5       156224                       # Per bank write bursts (Count)
system.mem_ctrls1.dram.perBankWrBursts::6       156178                       # Per bank write bursts (Count)
system.mem_ctrls1.dram.perBankWrBursts::7       156166                       # Per bank write bursts (Count)
system.mem_ctrls1.dram.perBankWrBursts::8       156438                       # Per bank write bursts (Count)
system.mem_ctrls1.dram.perBankWrBursts::9       156480                       # Per bank write bursts (Count)
system.mem_ctrls1.dram.perBankWrBursts::10       156400                       # Per bank write bursts (Count)
system.mem_ctrls1.dram.perBankWrBursts::11       156366                       # Per bank write bursts (Count)
system.mem_ctrls1.dram.perBankWrBursts::12       156378                       # Per bank write bursts (Count)
system.mem_ctrls1.dram.perBankWrBursts::13       156386                       # Per bank write bursts (Count)
system.mem_ctrls1.dram.perBankWrBursts::14       156391                       # Per bank write bursts (Count)
system.mem_ctrls1.dram.perBankWrBursts::15       156274                       # Per bank write bursts (Count)
system.mem_ctrls1.dram.totQLat           115921008000                       # Total ticks spent queuing (Tick)
system.mem_ctrls1.dram.totBusLat          11758458000                       # Total ticks spent in databus transfers (Tick)
system.mem_ctrls1.dram.totMemAccLat      233505588000                       # Total ticks spent from burst creation until serviced by the DRAM (Tick)
system.mem_ctrls1.dram.avgQLat               19717.04                       # Average queueing delay per DRAM burst ((Tick/Count))
system.mem_ctrls1.dram.avgBusLat              2000.00                       # Average bus latency per DRAM burst ((Tick/Count))
system.mem_ctrls1.dram.avgMemAccLat          39717.04                       # Average memory access latency per DRAM burst ((Tick/Count))
system.mem_ctrls1.dram.readRowHits            2939307                       # Number of row buffer hits during reads (Count)
system.mem_ctrls1.dram.writeRowHits           2156135                       # Number of row buffer hits during writes (Count)
system.mem_ctrls1.dram.readRowHitRate           49.99                       # Row buffer hit rate for reads (Ratio)
system.mem_ctrls1.dram.writeRowHitRate          86.22                       # Row buffer hit rate for writes (Ratio)
system.mem_ctrls1.dram.bytesPerActivate::samples      3284484                       # Bytes accessed per row activation (Byte)
system.mem_ctrls1.dram.bytesPerActivate::mean    81.643763                       # Bytes accessed per row activation (Byte)
system.mem_ctrls1.dram.bytesPerActivate::gmean    72.318970                       # Bytes accessed per row activation (Byte)
system.mem_ctrls1.dram.bytesPerActivate::stdev    60.418942                       # Bytes accessed per row activation (Byte)
system.mem_ctrls1.dram.bytesPerActivate::0-63        12157      0.37%      0.37% # Bytes accessed per row activation (Byte)
system.mem_ctrls1.dram.bytesPerActivate::64-127      2973845     90.54%     90.91% # Bytes accessed per row activation (Byte)
system.mem_ctrls1.dram.bytesPerActivate::128-191        33860      1.03%     91.94% # Bytes accessed per row activation (Byte)
system.mem_ctrls1.dram.bytesPerActivate::192-255        97755      2.98%     94.92% # Bytes accessed per row activation (Byte)
system.mem_ctrls1.dram.bytesPerActivate::256-319       114293      3.48%     98.40% # Bytes accessed per row activation (Byte)
system.mem_ctrls1.dram.bytesPerActivate::320-383        34603      1.05%     99.45% # Bytes accessed per row activation (Byte)
system.mem_ctrls1.dram.bytesPerActivate::384-447         3919      0.12%     99.57% # Bytes accessed per row activation (Byte)
system.mem_ctrls1.dram.bytesPerActivate::448-511         4318      0.13%     99.70% # Bytes accessed per row activation (Byte)
system.mem_ctrls1.dram.bytesPerActivate::512-575         9734      0.30%    100.00% # Bytes accessed per row activation (Byte)
system.mem_ctrls1.dram.bytesPerActivate::total      3284484                       # Bytes accessed per row activation (Byte)
system.mem_ctrls1.dram.bytesRead            188135328                       # Total bytes read (Byte)
system.mem_ctrls1.dram.bytesWritten          80022304                       # Total bytes written (Byte)
system.mem_ctrls1.dram.avgRdBW             349.176388                       # Average DRAM read bandwidth in MiBytes/s ((Byte/Second))
system.mem_ctrls1.dram.avgWrBW             148.520214                       # Average DRAM write bandwidth in MiBytes/s ((Byte/Second))
system.mem_ctrls1.dram.peakBW                16000.00                       # Theoretical peak bandwidth in MiByte/s ((Byte/Second))
system.mem_ctrls1.dram.busUtil                   3.11                       # Data bus utilization in percentage (Ratio)
system.mem_ctrls1.dram.busUtilRead               2.18                       # Data bus utilization in percentage for reads (Ratio)
system.mem_ctrls1.dram.busUtilWrite              0.93                       # Data bus utilization in percentage for writes (Ratio)
system.mem_ctrls1.dram.pageHitRate              60.81                       # Row buffer hit rate, read and write combined (Ratio)
system.mem_ctrls1.dram.power_state.pwrStateResidencyTicks::UNDEFINED 538797393750                       # Cumulative time (in ticks) in various power states (Tick)
system.mem_ctrls1.dram.rank0.actEnergy              0                       # Energy for activate commands per rank (pJ) (Joule)
system.mem_ctrls1.dram.rank0.preEnergy              0                       # Energy for precharge commands per rank (pJ) (Joule)
system.mem_ctrls1.dram.rank0.readEnergy             0                       # Energy for read commands per rank (pJ) (Joule)
system.mem_ctrls1.dram.rank0.writeEnergy            0                       # Energy for write commands per rank (pJ) (Joule)
system.mem_ctrls1.dram.rank0.refreshEnergy            0                       # Energy for refresh commands per rank (pJ) (Joule)
system.mem_ctrls1.dram.rank0.actBackEnergy            0                       # Energy for active background per rank (pJ) (Joule)
system.mem_ctrls1.dram.rank0.preBackEnergy            0                       # Energy for precharge background per rank (pJ) (Joule)
system.mem_ctrls1.dram.rank0.actPowerDownEnergy            0                       # Energy for active power-down per rank (pJ) (Joule)
system.mem_ctrls1.dram.rank0.prePowerDownEnergy            0                       # Energy for precharge power-down per rank (pJ) (Joule)
system.mem_ctrls1.dram.rank0.selfRefreshEnergy            0                       # Energy for self refresh per rank (pJ) (Joule)
system.mem_ctrls1.dram.rank0.totalEnergy            0                       # Total energy per rank (pJ) (Joule)
system.mem_ctrls1.dram.rank0.averagePower            0                       # Core power per rank (mW) (Watt)
system.mem_ctrls1.dram.rank0.totalIdleTime            0                       # Total Idle time Per DRAM Rank (Tick)
system.mem_ctrls1.dram.rank0.pwrStateTime::IDLE 223479663250                       # Time in different power states (Tick)
system.mem_ctrls1.dram.rank0.pwrStateTime::REF  30503000000                       # Time in different power states (Tick)
system.mem_ctrls1.dram.rank0.pwrStateTime::SREF            0                       # Time in different power states (Tick)
system.mem_ctrls1.dram.rank0.pwrStateTime::PRE_PDN            0                       # Time in different power states (Tick)
system.mem_ctrls1.dram.rank0.pwrStateTime::ACT 284814730500                       # Time in different power states (Tick)
system.mem_ctrls1.dram.rank0.pwrStateTime::ACT_PDN            0                       # Time in different power states (Tick)
system.mem_ctrls1.power_state.pwrStateResidencyTicks::UNDEFINED 538797393750                       # Cumulative time (in ticks) in various power states (Tick)
system.membus.transDist::ReadResp             3503594                       # Transaction distribution (Count)
system.membus.transDist::WritebackDirty       2500738                       # Transaction distribution (Count)
system.membus.transDist::CleanEvict           3345386                       # Transaction distribution (Count)
system.membus.transDist::ReadExReq            2375696                       # Transaction distribution (Count)
system.membus.transDist::ReadExResp           2375696                       # Transaction distribution (Count)
system.membus.transDist::ReadSharedReq        3503594                       # Transaction distribution (Count)
system.membus.pktCount_system.l2.mem_side_port::system.mem_ctrls0.port      8802408                       # Packet count per connected requestor and responder (Count)
system.membus.pktCount_system.l2.mem_side_port::system.mem_ctrls1.port      8802296                       # Packet count per connected requestor and responder (Count)
system.membus.pktCount_system.l2.mem_side_port::total     17604704                       # Packet count per connected requestor and responder (Count)
system.membus.pktCount::total                17604704                       # Packet count per connected requestor and responder (Count)
system.membus.pktSize_system.l2.mem_side_port::system.mem_ctrls0.port    268162688                       # Cumulative packet size per connected requestor and responder (Byte)
system.membus.pktSize_system.l2.mem_side_port::system.mem_ctrls1.port    268159104                       # Cumulative packet size per connected requestor and responder (Byte)
system.membus.pktSize_system.l2.mem_side_port::total    536321792                       # Cumulative packet size per connected requestor and responder (Byte)
system.membus.pktSize::total                536321792                       # Cumulative packet size per connected requestor and responder (Byte)
system.membus.snoops                                0                       # Total snoops (Count)
system.membus.snoopTraffic                          0                       # Total snoop traffic (Byte)
system.membus.snoopFanout::samples            5879290                       # Request fanout histogram (Count)
system.membus.snoopFanout::mean                     0                       # Request fanout histogram (Count)
system.membus.snoopFanout::stdev                    0                       # Request fanout histogram (Count)
system.membus.snoopFanout::underflows               0      0.00%      0.00% # Request fanout histogram (Count)
system.membus.snoopFanout::0                  5879290    100.00%    100.00% # Request fanout histogram (Count)
system.membus.snoopFanout::1                        0      0.00%    100.00% # Request fanout histogram (Count)
system.membus.snoopFanout::overflows                0      0.00%    100.00% # Request fanout histogram (Count)
system.membus.snoopFanout::min_value                0                       # Request fanout histogram (Count)
system.membus.snoopFanout::max_value                0                       # Request fanout histogram (Count)
system.membus.snoopFanout::total              5879290                       # Request fanout histogram (Count)
system.membus.power_state.pwrStateResidencyTicks::UNDEFINED 538797393750                       # Cumulative time (in ticks) in various power states (Tick)
system.membus.reqLayer2.occupancy         11539808498                       # Layer occupancy (ticks) (Tick)
system.membus.reqLayer2.utilization               0.0                       # Layer utilization (Ratio)
system.membus.reqLayer3.occupancy         11539631749                       # Layer occupancy (ticks) (Tick)
system.membus.reqLayer3.utilization               0.0                       # Layer utilization (Ratio)
system.membus.respLayer1.occupancy        29460270750                       # Layer occupancy (ticks) (Tick)
system.membus.respLayer1.utilization              0.1                       # Layer utilization (Ratio)
system.membus.snoop_filter.totRequests       11725414                       # Total number of requests made to the snoop filter. (Count)
system.membus.snoop_filter.hitSingleRequests      5846124                       # Number of requests hitting in the snoop filter with a single holder of the requested data. (Count)
system.membus.snoop_filter.hitMultiRequests            0                       # Number of requests hitting in the snoop filter with multiple (>1) holders of the requested data. (Count)
system.membus.snoop_filter.totSnoops                0                       # Total number of snoops made to the snoop filter. (Count)
system.membus.snoop_filter.hitSingleSnoops            0                       # Number of snoops hitting in the snoop filter with a single holder of the requested data. (Count)
system.membus.snoop_filter.hitMultiSnoops            0                       # Number of snoops hitting in the snoop filter with multiple (>1) holders of the requested data. (Count)
system.tol2bus.transDist::ReadResp            3504189                       # Transaction distribution (Count)
system.tol2bus.transDist::WritebackDirty      5001644                       # Transaction distribution (Count)
system.tol2bus.transDist::WritebackClean         1109                       # Transaction distribution (Count)
system.tol2bus.transDist::CleanEvict          6722356                       # Transaction distribution (Count)
system.tol2bus.transDist::ReadExReq           2375740                       # Transaction distribution (Count)
system.tol2bus.transDist::ReadExResp          2375740                       # Transaction distribution (Count)
system.tol2bus.transDist::ReadCleanReq           1611                       # Transaction distribution (Count)
system.tol2bus.transDist::ReadSharedReq       3502578                       # Transaction distribution (Count)
system.tol2bus.pktCount_system.cpu.icache.mem_side_port::system.l2.cpu_side_port         4331                       # Packet count per connected requestor and responder (Count)
system.tol2bus.pktCount_system.cpu.dcache.mem_side_port::system.l2.cpu_side_port     17633930                       # Packet count per connected requestor and responder (Count)
system.tol2bus.pktCount::total               17638261                       # Packet count per connected requestor and responder (Count)
system.tol2bus.pktSize_system.cpu.icache.mem_side_port::system.l2.cpu_side_port       174080                       # Cumulative packet size per connected requestor and responder (Byte)
system.tol2bus.pktSize_system.cpu.dcache.mem_side_port::system.l2.cpu_side_port    536270336                       # Cumulative packet size per connected requestor and responder (Byte)
system.tol2bus.pktSize::total               536444416                       # Cumulative packet size per connected requestor and responder (Byte)
system.tol2bus.snoops                         5846706                       # Total snoops (Count)
system.tol2bus.snoopTraffic                 160047232                       # Total snoop traffic (Byte)
system.tol2bus.snoopFanout::samples          11726635                       # Request fanout histogram (Count)
system.tol2bus.snoopFanout::mean             0.000050                       # Request fanout histogram (Count)
system.tol2bus.snoopFanout::stdev            0.007063                       # Request fanout histogram (Count)
system.tol2bus.snoopFanout::underflows              0      0.00%      0.00% # Request fanout histogram (Count)
system.tol2bus.snoopFanout::0                11726050    100.00%    100.00% # Request fanout histogram (Count)
system.tol2bus.snoopFanout::1                     585      0.00%    100.00% # Request fanout histogram (Count)
system.tol2bus.snoopFanout::2                       0      0.00%    100.00% # Request fanout histogram (Count)
system.tol2bus.snoopFanout::3                       0      0.00%    100.00% # Request fanout histogram (Count)
system.tol2bus.snoopFanout::4                       0      0.00%    100.00% # Request fanout histogram (Count)
system.tol2bus.snoopFanout::overflows               0      0.00%    100.00% # Request fanout histogram (Count)
system.tol2bus.snoopFanout::min_value               0                       # Request fanout histogram (Count)
system.tol2bus.snoopFanout::max_value               1                       # Request fanout histogram (Count)
system.tol2bus.snoopFanout::total            11726635                       # Request fanout histogram (Count)
system.tol2bus.power_state.pwrStateResidencyTicks::UNDEFINED 538797393750                       # Cumulative time (in ticks) in various power states (Tick)
system.tol2bus.reqLayer0.occupancy         4190590500                       # Layer occupancy (ticks) (Tick)
system.tol2bus.reqLayer0.utilization              0.0                       # Layer utilization (Ratio)
system.tol2bus.respLayer0.occupancy           1208250                       # Layer occupancy (ticks) (Tick)
system.tol2bus.respLayer0.utilization             0.0                       # Layer utilization (Ratio)
system.tol2bus.respLayer1.occupancy        4408738500                       # Layer occupancy (ticks) (Tick)
system.tol2bus.respLayer1.utilization             0.0                       # Layer utilization (Ratio)
system.tol2bus.snoop_filter.totRequests      11758332                       # Total number of requests made to the snoop filter. (Count)
system.tol2bus.snoop_filter.hitSingleRequests      5878403                       # Number of requests hitting in the snoop filter with a single holder of the requested data. (Count)
system.tol2bus.snoop_filter.hitMultiRequests            0                       # Number of requests hitting in the snoop filter with multiple (>1) holders of the requested data. (Count)
system.tol2bus.snoop_filter.totSnoops             585                       # Total number of snoops made to the snoop filter. (Count)
system.tol2bus.snoop_filter.hitSingleSnoops          585                       # Number of snoops hitting in the snoop filter with a single holder of the requested data. (Count)
system.tol2bus.snoop_filter.hitMultiSnoops            0                       # Number of snoops hitting in the snoop filter with multiple (>1) holders of the requested data. (Count)
system.voltage_domain.voltage                       1                       # Voltage in Volts (Volt)
system.workload.inst.arm                            0                       # number of arm instructions executed (Count)
system.workload.inst.quiesce                        0                       # number of quiesce instructions executed (Count)

---------- End Simulation Statistics   ----------
