
---------- Begin Simulation Statistics ----------
simSeconds                                   0.024294                       # Number of seconds simulated (Second)
simTicks                                  24293823500                       # Number of ticks simulated (Tick)
finalTick                                 24293823500                       # Number of ticks from beginning of simulation (restored from checkpoints and never reset) (Tick)
simFreq                                  1000000000000                       # The number of ticks per simulated second ((Tick/Second))
hostSeconds                                   2975.09                       # Real time elapsed on the host (Second)
hostTickRate                                  8165733                       # The number of ticks simulated per host second (ticks/s) ((Tick/Second))
hostMemory                                   10756656                       # Number of bytes of host memory used (Byte)
simInsts                                    336529327                       # Number of instructions simulated (Count)
simOps                                      584392455                       # Number of ops (including micro ops) simulated (Count)
hostInstRate                                   113116                       # Simulator instruction rate (inst/s) ((Count/Second))
hostOpRate                                     196428                       # Simulator op (including micro ops) rate (op/s) ((Count/Second))
system.clk_domain.clock                          1000                       # Clock period in ticks (Tick)
system.cpu0.numCycles                        97175295                       # Number of cpu cycles simulated (Cycle)
system.cpu0.numWorkItemsStarted                     0                       # Number of work items this cpu started (Count)
system.cpu0.numWorkItemsCompleted                   0                       # Number of work items this cpu completed (Count)
system.cpu0.instsAdded                       44061581                       # Number of instructions added to the IQ (excludes non-spec) (Count)
system.cpu0.nonSpecInstsAdded                    1825                       # Number of non-speculative instructions added to the IQ (Count)
system.cpu0.instsIssued                      43955869                       # Number of instructions issued (Count)
system.cpu0.squashedInstsIssued                  2023                       # Number of squashed instructions issued (Count)
system.cpu0.squashedInstsExamined              588232                       # Number of squashed instructions iterated over during squash; mainly for profiling (Count)
system.cpu0.squashedOperandsExamined           771111                       # Number of squashed operands that are examined and possibly removed from graph (Count)
system.cpu0.squashedNonSpecRemoved                277                       # Number of squashed non-spec instructions that were removed (Count)
system.cpu0.numIssuedDist::samples           96760614                       # Number of insts issued each cycle (Count)
system.cpu0.numIssuedDist::mean              0.454274                       # Number of insts issued each cycle (Count)
system.cpu0.numIssuedDist::stdev             1.312483                       # Number of insts issued each cycle (Count)
system.cpu0.numIssuedDist::underflows               0      0.00%      0.00% # Number of insts issued each cycle (Count)
system.cpu0.numIssuedDist::0                 82312322     85.07%     85.07% # Number of insts issued each cycle (Count)
system.cpu0.numIssuedDist::1                  4172050      4.31%     89.38% # Number of insts issued each cycle (Count)
system.cpu0.numIssuedDist::2                  2873687      2.97%     92.35% # Number of insts issued each cycle (Count)
system.cpu0.numIssuedDist::3                  1900396      1.96%     94.31% # Number of insts issued each cycle (Count)
system.cpu0.numIssuedDist::4                  2414113      2.49%     96.81% # Number of insts issued each cycle (Count)
system.cpu0.numIssuedDist::5                   922844      0.95%     97.76% # Number of insts issued each cycle (Count)
system.cpu0.numIssuedDist::6                  1232116      1.27%     99.04% # Number of insts issued each cycle (Count)
system.cpu0.numIssuedDist::7                   792799      0.82%     99.86% # Number of insts issued each cycle (Count)
system.cpu0.numIssuedDist::8                   140287      0.14%    100.00% # Number of insts issued each cycle (Count)
system.cpu0.numIssuedDist::overflows                0      0.00%    100.00% # Number of insts issued each cycle (Count)
system.cpu0.numIssuedDist::min_value                0                       # Number of insts issued each cycle (Count)
system.cpu0.numIssuedDist::max_value                8                       # Number of insts issued each cycle (Count)
system.cpu0.numIssuedDist::total             96760614                       # Number of insts issued each cycle (Count)
system.cpu0.statFuBusy::No_OpClass                  0      0.00%      0.00% # attempts to use FU when none available (Count)
system.cpu0.statFuBusy::IntAlu                  14084      2.10%      2.10% # attempts to use FU when none available (Count)
system.cpu0.statFuBusy::IntMult                     0      0.00%      2.10% # attempts to use FU when none available (Count)
system.cpu0.statFuBusy::IntDiv                      0      0.00%      2.10% # attempts to use FU when none available (Count)
system.cpu0.statFuBusy::FloatAdd                    0      0.00%      2.10% # attempts to use FU when none available (Count)
system.cpu0.statFuBusy::FloatCmp                    0      0.00%      2.10% # attempts to use FU when none available (Count)
system.cpu0.statFuBusy::FloatCvt                    0      0.00%      2.10% # attempts to use FU when none available (Count)
system.cpu0.statFuBusy::FloatMult                   0      0.00%      2.10% # attempts to use FU when none available (Count)
system.cpu0.statFuBusy::FloatMultAcc                0      0.00%      2.10% # attempts to use FU when none available (Count)
system.cpu0.statFuBusy::FloatDiv                    0      0.00%      2.10% # attempts to use FU when none available (Count)
system.cpu0.statFuBusy::FloatMisc                   0      0.00%      2.10% # attempts to use FU when none available (Count)
system.cpu0.statFuBusy::FloatSqrt                   0      0.00%      2.10% # attempts to use FU when none available (Count)
system.cpu0.statFuBusy::SimdAdd                     1      0.00%      2.10% # attempts to use FU when none available (Count)
system.cpu0.statFuBusy::SimdAddAcc                  0      0.00%      2.10% # attempts to use FU when none available (Count)
system.cpu0.statFuBusy::SimdAlu                   115      0.02%      2.12% # attempts to use FU when none available (Count)
system.cpu0.statFuBusy::SimdCmp                     0      0.00%      2.12% # attempts to use FU when none available (Count)
system.cpu0.statFuBusy::SimdCvt                    96      0.01%      2.14% # attempts to use FU when none available (Count)
system.cpu0.statFuBusy::SimdMisc                   59      0.01%      2.14% # attempts to use FU when none available (Count)
system.cpu0.statFuBusy::SimdMult                    0      0.00%      2.14% # attempts to use FU when none available (Count)
system.cpu0.statFuBusy::SimdMultAcc                 0      0.00%      2.14% # attempts to use FU when none available (Count)
system.cpu0.statFuBusy::SimdShift                  19      0.00%      2.15% # attempts to use FU when none available (Count)
system.cpu0.statFuBusy::SimdShiftAcc                0      0.00%      2.15% # attempts to use FU when none available (Count)
system.cpu0.statFuBusy::SimdDiv                     0      0.00%      2.15% # attempts to use FU when none available (Count)
system.cpu0.statFuBusy::SimdSqrt                    0      0.00%      2.15% # attempts to use FU when none available (Count)
system.cpu0.statFuBusy::SimdFloatAdd           637150     95.19%     97.34% # attempts to use FU when none available (Count)
system.cpu0.statFuBusy::SimdFloatAlu                0      0.00%     97.34% # attempts to use FU when none available (Count)
system.cpu0.statFuBusy::SimdFloatCmp                0      0.00%     97.34% # attempts to use FU when none available (Count)
system.cpu0.statFuBusy::SimdFloatCvt                0      0.00%     97.34% # attempts to use FU when none available (Count)
system.cpu0.statFuBusy::SimdFloatDiv                0      0.00%     97.34% # attempts to use FU when none available (Count)
system.cpu0.statFuBusy::SimdFloatMisc               0      0.00%     97.34% # attempts to use FU when none available (Count)
system.cpu0.statFuBusy::SimdFloatMult               0      0.00%     97.34% # attempts to use FU when none available (Count)
system.cpu0.statFuBusy::SimdFloatMultAcc            0      0.00%     97.34% # attempts to use FU when none available (Count)
system.cpu0.statFuBusy::SimdFloatSqrt               0      0.00%     97.34% # attempts to use FU when none available (Count)
system.cpu0.statFuBusy::SimdReduceAdd               0      0.00%     97.34% # attempts to use FU when none available (Count)
system.cpu0.statFuBusy::SimdReduceAlu               0      0.00%     97.34% # attempts to use FU when none available (Count)
system.cpu0.statFuBusy::SimdReduceCmp               0      0.00%     97.34% # attempts to use FU when none available (Count)
system.cpu0.statFuBusy::SimdFloatReduceAdd            0      0.00%     97.34% # attempts to use FU when none available (Count)
system.cpu0.statFuBusy::SimdFloatReduceCmp            0      0.00%     97.34% # attempts to use FU when none available (Count)
system.cpu0.statFuBusy::SimdAes                     0      0.00%     97.34% # attempts to use FU when none available (Count)
system.cpu0.statFuBusy::SimdAesMix                  0      0.00%     97.34% # attempts to use FU when none available (Count)
system.cpu0.statFuBusy::SimdSha1Hash                0      0.00%     97.34% # attempts to use FU when none available (Count)
system.cpu0.statFuBusy::SimdSha1Hash2               0      0.00%     97.34% # attempts to use FU when none available (Count)
system.cpu0.statFuBusy::SimdSha256Hash              0      0.00%     97.34% # attempts to use FU when none available (Count)
system.cpu0.statFuBusy::SimdSha256Hash2             0      0.00%     97.34% # attempts to use FU when none available (Count)
system.cpu0.statFuBusy::SimdShaSigma2               0      0.00%     97.34% # attempts to use FU when none available (Count)
system.cpu0.statFuBusy::SimdShaSigma3               0      0.00%     97.34% # attempts to use FU when none available (Count)
system.cpu0.statFuBusy::SimdPredAlu                 0      0.00%     97.34% # attempts to use FU when none available (Count)
system.cpu0.statFuBusy::MemRead                  2455      0.37%     97.71% # attempts to use FU when none available (Count)
system.cpu0.statFuBusy::MemWrite                 1811      0.27%     97.98% # attempts to use FU when none available (Count)
system.cpu0.statFuBusy::FloatMemRead             2746      0.41%     98.39% # attempts to use FU when none available (Count)
system.cpu0.statFuBusy::FloatMemWrite           10791      1.61%    100.00% # attempts to use FU when none available (Count)
system.cpu0.statFuBusy::IprAccess                   0      0.00%    100.00% # attempts to use FU when none available (Count)
system.cpu0.statFuBusy::InstPrefetch                0      0.00%    100.00% # attempts to use FU when none available (Count)
system.cpu0.statIssuedInstType_0::No_OpClass         6638      0.02%      0.02% # Number of instructions issued per FU type, per thread (Count)
system.cpu0.statIssuedInstType_0::IntAlu     23094446     52.54%     52.56% # Number of instructions issued per FU type, per thread (Count)
system.cpu0.statIssuedInstType_0::IntMult          290      0.00%     52.56% # Number of instructions issued per FU type, per thread (Count)
system.cpu0.statIssuedInstType_0::IntDiv         2946      0.01%     52.56% # Number of instructions issued per FU type, per thread (Count)
system.cpu0.statIssuedInstType_0::FloatAdd      3287954      7.48%     60.04% # Number of instructions issued per FU type, per thread (Count)
system.cpu0.statIssuedInstType_0::FloatCmp            0      0.00%     60.04% # Number of instructions issued per FU type, per thread (Count)
system.cpu0.statIssuedInstType_0::FloatCvt          536      0.00%     60.04% # Number of instructions issued per FU type, per thread (Count)
system.cpu0.statIssuedInstType_0::FloatMult            0      0.00%     60.04% # Number of instructions issued per FU type, per thread (Count)
system.cpu0.statIssuedInstType_0::FloatMultAcc            0      0.00%     60.04% # Number of instructions issued per FU type, per thread (Count)
system.cpu0.statIssuedInstType_0::FloatDiv            0      0.00%     60.04% # Number of instructions issued per FU type, per thread (Count)
system.cpu0.statIssuedInstType_0::FloatMisc            0      0.00%     60.04% # Number of instructions issued per FU type, per thread (Count)
system.cpu0.statIssuedInstType_0::FloatSqrt            0      0.00%     60.04% # Number of instructions issued per FU type, per thread (Count)
system.cpu0.statIssuedInstType_0::SimdAdd         2652      0.01%     60.05% # Number of instructions issued per FU type, per thread (Count)
system.cpu0.statIssuedInstType_0::SimdAddAcc            0      0.00%     60.05% # Number of instructions issued per FU type, per thread (Count)
system.cpu0.statIssuedInstType_0::SimdAlu        27168      0.06%     60.11% # Number of instructions issued per FU type, per thread (Count)
system.cpu0.statIssuedInstType_0::SimdCmp           76      0.00%     60.11% # Number of instructions issued per FU type, per thread (Count)
system.cpu0.statIssuedInstType_0::SimdCvt         6343      0.01%     60.13% # Number of instructions issued per FU type, per thread (Count)
system.cpu0.statIssuedInstType_0::SimdMisc         4708      0.01%     60.14% # Number of instructions issued per FU type, per thread (Count)
system.cpu0.statIssuedInstType_0::SimdMult            0      0.00%     60.14% # Number of instructions issued per FU type, per thread (Count)
system.cpu0.statIssuedInstType_0::SimdMultAcc            0      0.00%     60.14% # Number of instructions issued per FU type, per thread (Count)
system.cpu0.statIssuedInstType_0::SimdShift         1822      0.00%     60.14% # Number of instructions issued per FU type, per thread (Count)
system.cpu0.statIssuedInstType_0::SimdShiftAcc            0      0.00%     60.14% # Number of instructions issued per FU type, per thread (Count)
system.cpu0.statIssuedInstType_0::SimdDiv            0      0.00%     60.14% # Number of instructions issued per FU type, per thread (Count)
system.cpu0.statIssuedInstType_0::SimdSqrt            0      0.00%     60.14% # Number of instructions issued per FU type, per thread (Count)
system.cpu0.statIssuedInstType_0::SimdFloatAdd      6291980     14.31%     74.46% # Number of instructions issued per FU type, per thread (Count)
system.cpu0.statIssuedInstType_0::SimdFloatAlu            0      0.00%     74.46% # Number of instructions issued per FU type, per thread (Count)
system.cpu0.statIssuedInstType_0::SimdFloatCmp           33      0.00%     74.46% # Number of instructions issued per FU type, per thread (Count)
system.cpu0.statIssuedInstType_0::SimdFloatCvt      3016142      6.86%     81.32% # Number of instructions issued per FU type, per thread (Count)
system.cpu0.statIssuedInstType_0::SimdFloatDiv           17      0.00%     81.32% # Number of instructions issued per FU type, per thread (Count)
system.cpu0.statIssuedInstType_0::SimdFloatMisc            0      0.00%     81.32% # Number of instructions issued per FU type, per thread (Count)
system.cpu0.statIssuedInstType_0::SimdFloatMult       255409      0.58%     81.90% # Number of instructions issued per FU type, per thread (Count)
system.cpu0.statIssuedInstType_0::SimdFloatMultAcc            0      0.00%     81.90% # Number of instructions issued per FU type, per thread (Count)
system.cpu0.statIssuedInstType_0::SimdFloatSqrt            0      0.00%     81.90% # Number of instructions issued per FU type, per thread (Count)
system.cpu0.statIssuedInstType_0::SimdReduceAdd            0      0.00%     81.90% # Number of instructions issued per FU type, per thread (Count)
system.cpu0.statIssuedInstType_0::SimdReduceAlu            0      0.00%     81.90% # Number of instructions issued per FU type, per thread (Count)
system.cpu0.statIssuedInstType_0::SimdReduceCmp            0      0.00%     81.90% # Number of instructions issued per FU type, per thread (Count)
system.cpu0.statIssuedInstType_0::SimdFloatReduceAdd            0      0.00%     81.90% # Number of instructions issued per FU type, per thread (Count)
system.cpu0.statIssuedInstType_0::SimdFloatReduceCmp            0      0.00%     81.90% # Number of instructions issued per FU type, per thread (Count)
system.cpu0.statIssuedInstType_0::SimdAes            0      0.00%     81.90% # Number of instructions issued per FU type, per thread (Count)
system.cpu0.statIssuedInstType_0::SimdAesMix            0      0.00%     81.90% # Number of instructions issued per FU type, per thread (Count)
system.cpu0.statIssuedInstType_0::SimdSha1Hash            0      0.00%     81.90% # Number of instructions issued per FU type, per thread (Count)
system.cpu0.statIssuedInstType_0::SimdSha1Hash2            0      0.00%     81.90% # Number of instructions issued per FU type, per thread (Count)
system.cpu0.statIssuedInstType_0::SimdSha256Hash            0      0.00%     81.90% # Number of instructions issued per FU type, per thread (Count)
system.cpu0.statIssuedInstType_0::SimdSha256Hash2            0      0.00%     81.90% # Number of instructions issued per FU type, per thread (Count)
system.cpu0.statIssuedInstType_0::SimdShaSigma2            0      0.00%     81.90% # Number of instructions issued per FU type, per thread (Count)
system.cpu0.statIssuedInstType_0::SimdShaSigma3            0      0.00%     81.90% # Number of instructions issued per FU type, per thread (Count)
system.cpu0.statIssuedInstType_0::SimdPredAlu            0      0.00%     81.90% # Number of instructions issued per FU type, per thread (Count)
system.cpu0.statIssuedInstType_0::MemRead       402036      0.91%     82.81% # Number of instructions issued per FU type, per thread (Count)
system.cpu0.statIssuedInstType_0::MemWrite       113627      0.26%     83.07% # Number of instructions issued per FU type, per thread (Count)
system.cpu0.statIssuedInstType_0::FloatMemRead      6837161     15.55%     98.63% # Number of instructions issued per FU type, per thread (Count)
system.cpu0.statIssuedInstType_0::FloatMemWrite       603885      1.37%    100.00% # Number of instructions issued per FU type, per thread (Count)
system.cpu0.statIssuedInstType_0::IprAccess            0      0.00%    100.00% # Number of instructions issued per FU type, per thread (Count)
system.cpu0.statIssuedInstType_0::InstPrefetch            0      0.00%    100.00% # Number of instructions issued per FU type, per thread (Count)
system.cpu0.statIssuedInstType_0::total      43955869                       # Number of instructions issued per FU type, per thread (Count)
system.cpu0.issueRate                        0.452336                       # Inst issue rate ((Count/Cycle))
system.cpu0.fuBusy                             669327                       # FU busy when requested (Count)
system.cpu0.fuBusyRate                       0.015227                       # FU busy rate (busy events/executed inst) ((Count/Count))
system.cpu0.intInstQueueReads               142996805                       # Number of integer instruction queue reads (Count)
system.cpu0.intInstQueueWrites               23747132                       # Number of integer instruction queue writes (Count)
system.cpu0.intInstQueueWakeupAccesses       23053663                       # Number of integer instruction queue wakeup accesses (Count)
system.cpu0.fpInstQueueReads                 42346897                       # Number of floating instruction queue reads (Count)
system.cpu0.fpInstQueueWrites                20904753                       # Number of floating instruction queue writes (Count)
system.cpu0.fpInstQueueWakeupAccesses        20829926                       # Number of floating instruction queue wakeup accesses (Count)
system.cpu0.vecInstQueueReads                       0                       # Number of vector instruction queue reads (Count)
system.cpu0.vecInstQueueWrites                      0                       # Number of vector instruction queue writes (Count)
system.cpu0.vecInstQueueWakeupAccesses              0                       # Number of vector instruction queue wakeup accesses (Count)
system.cpu0.intAluAccesses                   23119729                       # Number of integer alu accesses (Count)
system.cpu0.fpAluAccesses                    21498829                       # Number of floating point alu accesses (Count)
system.cpu0.vecAluAccesses                          0                       # Number of vector alu accesses (Count)
system.cpu0.numInsts                         43923420                       # Number of executed instructions (Count)
system.cpu0.numLoadInsts                      7233282                       # Number of load instructions executed (Count)
system.cpu0.numSquashedInsts                    32449                       # Number of squashed instructions skipped in execute (Count)
system.cpu0.numSwp                                  0                       # Number of swp insts executed (Count)
system.cpu0.numNop                                  0                       # Number of nop insts executed (Count)
system.cpu0.numRefs                           7949714                       # Number of memory reference insts executed (Count)
system.cpu0.numBranches                       4854304                       # Number of branches executed (Count)
system.cpu0.numStoreInsts                      716432                       # Number of stores executed (Count)
system.cpu0.numRate                          0.452002                       # Inst execution rate ((Count/Cycle))
system.cpu0.timesIdled                           1911                       # Number of times that the entire CPU went into an idle state and unscheduled itself (Count)
system.cpu0.idleCycles                         414681                       # Total number of cycles that the CPU has spent unscheduled due to idling (Cycle)
system.cpu0.committedInsts                   23797037                       # Number of Instructions Simulated (Count)
system.cpu0.committedOps                     43475168                       # Number of Ops (including micro ops) Simulated (Count)
system.cpu0.cpi                              4.083504                       # CPI: Cycles Per Instruction ((Cycle/Count))
system.cpu0.totalCpi                         4.083504                       # CPI: Total CPI of All Threads ((Cycle/Count))
system.cpu0.ipc                              0.244888                       # IPC: Instructions Per Cycle ((Count/Cycle))
system.cpu0.totalIpc                         0.244888                       # IPC: Total IPC of All Threads ((Count/Cycle))
system.cpu0.intRegfileReads                  31870661                       # Number of integer regfile reads (Count)
system.cpu0.intRegfileWrites                 16072884                       # Number of integer regfile writes (Count)
system.cpu0.fpRegfileReads                   27393753                       # Number of floating regfile reads (Count)
system.cpu0.fpRegfileWrites                  17217390                       # Number of floating regfile writes (Count)
system.cpu0.ccRegfileReads                   30213600                       # number of cc regfile reads (Count)
system.cpu0.ccRegfileWrites                  12796328                       # number of cc regfile writes (Count)
system.cpu0.miscRegfileReads                 17930581                       # number of misc regfile reads (Count)
system.cpu0.miscRegfileWrites                     234                       # number of misc regfile writes (Count)
system.cpu0.MemDepUnit__0.insertedLoads       7231067                       # Number of loads inserted to the mem dependence unit. (Count)
system.cpu0.MemDepUnit__0.insertedStores       722340                       # Number of stores inserted to the mem dependence unit. (Count)
system.cpu0.MemDepUnit__0.conflictingLoads        39518                       # Number of conflicting loads. (Count)
system.cpu0.MemDepUnit__0.conflictingStores        37824                       # Number of conflicting stores. (Count)
system.cpu0.MemDepUnit__1.insertedLoads             0                       # Number of loads inserted to the mem dependence unit. (Count)
system.cpu0.MemDepUnit__1.insertedStores            0                       # Number of stores inserted to the mem dependence unit. (Count)
system.cpu0.MemDepUnit__1.conflictingLoads            0                       # Number of conflicting loads. (Count)
system.cpu0.MemDepUnit__1.conflictingStores            0                       # Number of conflicting stores. (Count)
system.cpu0.MemDepUnit__2.insertedLoads             0                       # Number of loads inserted to the mem dependence unit. (Count)
system.cpu0.MemDepUnit__2.insertedStores            0                       # Number of stores inserted to the mem dependence unit. (Count)
system.cpu0.MemDepUnit__2.conflictingLoads            0                       # Number of conflicting loads. (Count)
system.cpu0.MemDepUnit__2.conflictingStores            0                       # Number of conflicting stores. (Count)
system.cpu0.MemDepUnit__3.insertedLoads             0                       # Number of loads inserted to the mem dependence unit. (Count)
system.cpu0.MemDepUnit__3.insertedStores            0                       # Number of stores inserted to the mem dependence unit. (Count)
system.cpu0.MemDepUnit__3.conflictingLoads            0                       # Number of conflicting loads. (Count)
system.cpu0.MemDepUnit__3.conflictingStores            0                       # Number of conflicting stores. (Count)
system.cpu0.branchPred.lookups                4909866                       # Number of BP lookups (Count)
system.cpu0.branchPred.condPredicted          4852086                       # Number of conditional branches predicted (Count)
system.cpu0.branchPred.condIncorrect             9127                       # Number of conditional branches incorrect (Count)
system.cpu0.branchPred.BTBLookups             1567196                       # Number of BTB lookups (Count)
system.cpu0.branchPred.BTBHits                1563495                       # Number of BTB hits (Count)
system.cpu0.branchPred.BTBHitRatio           0.997638                       # BTB Hit Ratio (Ratio)
system.cpu0.branchPred.RASUsed                  20225                       # Number of times the RAS was used to get a target. (Count)
system.cpu0.branchPred.RASIncorrect                 5                       # Number of incorrect RAS predictions. (Count)
system.cpu0.branchPred.indirectLookups          11538                       # Number of indirect predictor lookups. (Count)
system.cpu0.branchPred.indirectHits              6935                       # Number of indirect target hits. (Count)
system.cpu0.branchPred.indirectMisses            4603                       # Number of indirect misses. (Count)
system.cpu0.branchPred.indirectMispredicted          884                       # Number of mispredicted indirect branches. (Count)
system.cpu0.commit.commitSquashedInsts         472212                       # The number of squashed insts skipped by commit (Count)
system.cpu0.commit.commitNonSpecStalls           1548                       # The number of times commit has been forced to stall to communicate backwards (Count)
system.cpu0.commit.branchMispredicts             9352                       # The number of times a branch was mispredicted (Count)
system.cpu0.commit.numCommittedDist::samples     96691996                       # Number of insts commited each cycle (Count)
system.cpu0.commit.numCommittedDist::mean     0.449625                       # Number of insts commited each cycle (Count)
system.cpu0.commit.numCommittedDist::stdev     1.687497                       # Number of insts commited each cycle (Count)
system.cpu0.commit.numCommittedDist::underflows            0      0.00%      0.00% # Number of insts commited each cycle (Count)
system.cpu0.commit.numCommittedDist::0       88116920     91.13%     91.13% # Number of insts commited each cycle (Count)
system.cpu0.commit.numCommittedDist::1        1586044      1.64%     92.77% # Number of insts commited each cycle (Count)
system.cpu0.commit.numCommittedDist::2         703459      0.73%     93.50% # Number of insts commited each cycle (Count)
system.cpu0.commit.numCommittedDist::3        1409141      1.46%     94.96% # Number of insts commited each cycle (Count)
system.cpu0.commit.numCommittedDist::4         435849      0.45%     95.41% # Number of insts commited each cycle (Count)
system.cpu0.commit.numCommittedDist::5         281555      0.29%     95.70% # Number of insts commited each cycle (Count)
system.cpu0.commit.numCommittedDist::6          74392      0.08%     95.78% # Number of insts commited each cycle (Count)
system.cpu0.commit.numCommittedDist::7          19828      0.02%     95.80% # Number of insts commited each cycle (Count)
system.cpu0.commit.numCommittedDist::8        4064808      4.20%    100.00% # Number of insts commited each cycle (Count)
system.cpu0.commit.numCommittedDist::overflows            0      0.00%    100.00% # Number of insts commited each cycle (Count)
system.cpu0.commit.numCommittedDist::min_value            0                       # Number of insts commited each cycle (Count)
system.cpu0.commit.numCommittedDist::max_value            8                       # Number of insts commited each cycle (Count)
system.cpu0.commit.numCommittedDist::total     96691996                       # Number of insts commited each cycle (Count)
system.cpu0.commit.instsCommitted            23797037                       # Number of instructions committed (Count)
system.cpu0.commit.opsCommitted              43475168                       # Number of ops (including micro ops) committed (Count)
system.cpu0.commit.memRefs                    7843565                       # Number of memory references committed (Count)
system.cpu0.commit.loads                      7145770                       # Number of loads committed (Count)
system.cpu0.commit.amos                             0                       # Number of atomic instructions committed (Count)
system.cpu0.commit.membars                        876                       # Number of memory barriers committed (Count)
system.cpu0.commit.branches                   4816156                       # Number of branches committed (Count)
system.cpu0.commit.vectorInstructions               0                       # Number of committed Vector instructions. (Count)
system.cpu0.commit.floating                  20772419                       # Number of committed floating point instructions. (Count)
system.cpu0.commit.integer                   29883116                       # Number of committed integer instructions. (Count)
system.cpu0.commit.functionCalls                 9767                       # Number of function calls committed. (Count)
system.cpu0.commit.committedInstType_0::No_OpClass         2188      0.01%      0.01% # Class of committed instruction (Count)
system.cpu0.commit.committedInstType_0::IntAlu     22767617     52.37%     52.37% # Class of committed instruction (Count)
system.cpu0.commit.committedInstType_0::IntMult          252      0.00%     52.37% # Class of committed instruction (Count)
system.cpu0.commit.committedInstType_0::IntDiv         2655      0.01%     52.38% # Class of committed instruction (Count)
system.cpu0.commit.committedInstType_0::FloatAdd      3284666      7.56%     59.94% # Class of committed instruction (Count)
system.cpu0.commit.committedInstType_0::FloatCmp            0      0.00%     59.94% # Class of committed instruction (Count)
system.cpu0.commit.committedInstType_0::FloatCvt          416      0.00%     59.94% # Class of committed instruction (Count)
system.cpu0.commit.committedInstType_0::FloatMult            0      0.00%     59.94% # Class of committed instruction (Count)
system.cpu0.commit.committedInstType_0::FloatMultAcc            0      0.00%     59.94% # Class of committed instruction (Count)
system.cpu0.commit.committedInstType_0::FloatDiv            0      0.00%     59.94% # Class of committed instruction (Count)
system.cpu0.commit.committedInstType_0::FloatMisc            0      0.00%     59.94% # Class of committed instruction (Count)
system.cpu0.commit.committedInstType_0::FloatSqrt            0      0.00%     59.94% # Class of committed instruction (Count)
system.cpu0.commit.committedInstType_0::SimdAdd         2080      0.00%     59.94% # Class of committed instruction (Count)
system.cpu0.commit.committedInstType_0::SimdAddAcc            0      0.00%     59.94% # Class of committed instruction (Count)
system.cpu0.commit.committedInstType_0::SimdAlu        14473      0.03%     59.98% # Class of committed instruction (Count)
system.cpu0.commit.committedInstType_0::SimdCmp           72      0.00%     59.98% # Class of committed instruction (Count)
system.cpu0.commit.committedInstType_0::SimdCvt         4652      0.01%     59.99% # Class of committed instruction (Count)
system.cpu0.commit.committedInstType_0::SimdMisc         4097      0.01%     60.00% # Class of committed instruction (Count)
system.cpu0.commit.committedInstType_0::SimdMult            0      0.00%     60.00% # Class of committed instruction (Count)
system.cpu0.commit.committedInstType_0::SimdMultAcc            0      0.00%     60.00% # Class of committed instruction (Count)
system.cpu0.commit.committedInstType_0::SimdShift          932      0.00%     60.00% # Class of committed instruction (Count)
system.cpu0.commit.committedInstType_0::SimdShiftAcc            0      0.00%     60.00% # Class of committed instruction (Count)
system.cpu0.commit.committedInstType_0::SimdDiv            0      0.00%     60.00% # Class of committed instruction (Count)
system.cpu0.commit.committedInstType_0::SimdSqrt            0      0.00%     60.00% # Class of committed instruction (Count)
system.cpu0.commit.committedInstType_0::SimdFloatAdd      6286640     14.46%     74.46% # Class of committed instruction (Count)
system.cpu0.commit.committedInstType_0::SimdFloatAlu            0      0.00%     74.46% # Class of committed instruction (Count)
system.cpu0.commit.committedInstType_0::SimdFloatCmp           24      0.00%     74.46% # Class of committed instruction (Count)
system.cpu0.commit.committedInstType_0::SimdFloatCvt      3008098      6.92%     81.38% # Class of committed instruction (Count)
system.cpu0.commit.committedInstType_0::SimdFloatDiv           15      0.00%     81.38% # Class of committed instruction (Count)
system.cpu0.commit.committedInstType_0::SimdFloatMisc            0      0.00%     81.38% # Class of committed instruction (Count)
system.cpu0.commit.committedInstType_0::SimdFloatMult       252726      0.58%     81.96% # Class of committed instruction (Count)
system.cpu0.commit.committedInstType_0::SimdFloatMultAcc            0      0.00%     81.96% # Class of committed instruction (Count)
system.cpu0.commit.committedInstType_0::SimdFloatSqrt            0      0.00%     81.96% # Class of committed instruction (Count)
system.cpu0.commit.committedInstType_0::SimdReduceAdd            0      0.00%     81.96% # Class of committed instruction (Count)
system.cpu0.commit.committedInstType_0::SimdReduceAlu            0      0.00%     81.96% # Class of committed instruction (Count)
system.cpu0.commit.committedInstType_0::SimdReduceCmp            0      0.00%     81.96% # Class of committed instruction (Count)
system.cpu0.commit.committedInstType_0::SimdFloatReduceAdd            0      0.00%     81.96% # Class of committed instruction (Count)
system.cpu0.commit.committedInstType_0::SimdFloatReduceCmp            0      0.00%     81.96% # Class of committed instruction (Count)
system.cpu0.commit.committedInstType_0::SimdAes            0      0.00%     81.96% # Class of committed instruction (Count)
system.cpu0.commit.committedInstType_0::SimdAesMix            0      0.00%     81.96% # Class of committed instruction (Count)
system.cpu0.commit.committedInstType_0::SimdSha1Hash            0      0.00%     81.96% # Class of committed instruction (Count)
system.cpu0.commit.committedInstType_0::SimdSha1Hash2            0      0.00%     81.96% # Class of committed instruction (Count)
system.cpu0.commit.committedInstType_0::SimdSha256Hash            0      0.00%     81.96% # Class of committed instruction (Count)
system.cpu0.commit.committedInstType_0::SimdSha256Hash2            0      0.00%     81.96% # Class of committed instruction (Count)
system.cpu0.commit.committedInstType_0::SimdShaSigma2            0      0.00%     81.96% # Class of committed instruction (Count)
system.cpu0.commit.committedInstType_0::SimdShaSigma3            0      0.00%     81.96% # Class of committed instruction (Count)
system.cpu0.commit.committedInstType_0::SimdPredAlu            0      0.00%     81.96% # Class of committed instruction (Count)
system.cpu0.commit.committedInstType_0::MemRead       341759      0.79%     82.74% # Class of committed instruction (Count)
system.cpu0.commit.committedInstType_0::MemWrite        94753      0.22%     82.96% # Class of committed instruction (Count)
system.cpu0.commit.committedInstType_0::FloatMemRead      6804011     15.65%     98.61% # Class of committed instruction (Count)
system.cpu0.commit.committedInstType_0::FloatMemWrite       603042      1.39%    100.00% # Class of committed instruction (Count)
system.cpu0.commit.committedInstType_0::IprAccess            0      0.00%    100.00% # Class of committed instruction (Count)
system.cpu0.commit.committedInstType_0::InstPrefetch            0      0.00%    100.00% # Class of committed instruction (Count)
system.cpu0.commit.committedInstType_0::total     43475168                       # Class of committed instruction (Count)
system.cpu0.commit.commitEligibleSamples      4064808                       # number cycles where commit BW limit reached (Cycle)
system.cpu0.dcache.demandHits::cpu00.data      5272851                       # number of demand (read+write) hits (Count)
system.cpu0.dcache.demandHits::total          5272851                       # number of demand (read+write) hits (Count)
system.cpu0.dcache.overallHits::cpu00.data      5272851                       # number of overall hits (Count)
system.cpu0.dcache.overallHits::total         5272851                       # number of overall hits (Count)
system.cpu0.dcache.demandMisses::cpu00.data      2624544                       # number of demand (read+write) misses (Count)
system.cpu0.dcache.demandMisses::total        2624544                       # number of demand (read+write) misses (Count)
system.cpu0.dcache.overallMisses::cpu00.data      2624544                       # number of overall misses (Count)
system.cpu0.dcache.overallMisses::total       2624544                       # number of overall misses (Count)
system.cpu0.dcache.demandMissLatency::cpu00.data 168000685244                       # number of demand (read+write) miss ticks (Tick)
system.cpu0.dcache.demandMissLatency::total 168000685244                       # number of demand (read+write) miss ticks (Tick)
system.cpu0.dcache.overallMissLatency::cpu00.data 168000685244                       # number of overall miss ticks (Tick)
system.cpu0.dcache.overallMissLatency::total 168000685244                       # number of overall miss ticks (Tick)
system.cpu0.dcache.demandAccesses::cpu00.data      7897395                       # number of demand (read+write) accesses (Count)
system.cpu0.dcache.demandAccesses::total      7897395                       # number of demand (read+write) accesses (Count)
system.cpu0.dcache.overallAccesses::cpu00.data      7897395                       # number of overall (read+write) accesses (Count)
system.cpu0.dcache.overallAccesses::total      7897395                       # number of overall (read+write) accesses (Count)
system.cpu0.dcache.demandMissRate::cpu00.data     0.332330                       # miss rate for demand accesses (Ratio)
system.cpu0.dcache.demandMissRate::total     0.332330                       # miss rate for demand accesses (Ratio)
system.cpu0.dcache.overallMissRate::cpu00.data     0.332330                       # miss rate for overall accesses (Ratio)
system.cpu0.dcache.overallMissRate::total     0.332330                       # miss rate for overall accesses (Ratio)
system.cpu0.dcache.demandAvgMissLatency::cpu00.data 64011.380737                       # average overall miss latency in ticks ((Tick/Count))
system.cpu0.dcache.demandAvgMissLatency::total 64011.380737                       # average overall miss latency in ticks ((Tick/Count))
system.cpu0.dcache.overallAvgMissLatency::cpu00.data 64011.380737                       # average overall miss latency ((Tick/Count))
system.cpu0.dcache.overallAvgMissLatency::total 64011.380737                       # average overall miss latency ((Tick/Count))
system.cpu0.dcache.blockedCycles::no_mshrs      4416696                       # number of cycles access was blocked (Cycle)
system.cpu0.dcache.blockedCycles::no_targets         4622                       # number of cycles access was blocked (Cycle)
system.cpu0.dcache.blockedCauses::no_mshrs        36422                       # number of times access was blocked (Count)
system.cpu0.dcache.blockedCauses::no_targets           25                       # number of times access was blocked (Count)
system.cpu0.dcache.avgBlocked::no_mshrs    121.264510                       # average number of cycles each access was blocked ((Cycle/Count))
system.cpu0.dcache.avgBlocked::no_targets   184.880000                       # average number of cycles each access was blocked ((Cycle/Count))
system.cpu0.dcache.writebacks::writebacks        83106                       # number of writebacks (Count)
system.cpu0.dcache.writebacks::total            83106                       # number of writebacks (Count)
system.cpu0.dcache.demandMshrHits::cpu00.data      2068115                       # number of demand (read+write) MSHR hits (Count)
system.cpu0.dcache.demandMshrHits::total      2068115                       # number of demand (read+write) MSHR hits (Count)
system.cpu0.dcache.overallMshrHits::cpu00.data      2068115                       # number of overall MSHR hits (Count)
system.cpu0.dcache.overallMshrHits::total      2068115                       # number of overall MSHR hits (Count)
system.cpu0.dcache.demandMshrMisses::cpu00.data       556429                       # number of demand (read+write) MSHR misses (Count)
system.cpu0.dcache.demandMshrMisses::total       556429                       # number of demand (read+write) MSHR misses (Count)
system.cpu0.dcache.overallMshrMisses::cpu00.data       556429                       # number of overall MSHR misses (Count)
system.cpu0.dcache.overallMshrMisses::total       556429                       # number of overall MSHR misses (Count)
system.cpu0.dcache.demandMshrMissLatency::cpu00.data  56254842743                       # number of demand (read+write) MSHR miss ticks (Tick)
system.cpu0.dcache.demandMshrMissLatency::total  56254842743                       # number of demand (read+write) MSHR miss ticks (Tick)
system.cpu0.dcache.overallMshrMissLatency::cpu00.data  56254842743                       # number of overall MSHR miss ticks (Tick)
system.cpu0.dcache.overallMshrMissLatency::total  56254842743                       # number of overall MSHR miss ticks (Tick)
system.cpu0.dcache.demandMshrMissRate::cpu00.data     0.070457                       # mshr miss ratio for demand accesses (Ratio)
system.cpu0.dcache.demandMshrMissRate::total     0.070457                       # mshr miss ratio for demand accesses (Ratio)
system.cpu0.dcache.overallMshrMissRate::cpu00.data     0.070457                       # mshr miss ratio for overall accesses (Ratio)
system.cpu0.dcache.overallMshrMissRate::total     0.070457                       # mshr miss ratio for overall accesses (Ratio)
system.cpu0.dcache.demandAvgMshrMissLatency::cpu00.data 101099.767882                       # average overall mshr miss latency ((Tick/Count))
system.cpu0.dcache.demandAvgMshrMissLatency::total 101099.767882                       # average overall mshr miss latency ((Tick/Count))
system.cpu0.dcache.overallAvgMshrMissLatency::cpu00.data 101099.767882                       # average overall mshr miss latency ((Tick/Count))
system.cpu0.dcache.overallAvgMshrMissLatency::total 101099.767882                       # average overall mshr miss latency ((Tick/Count))
system.cpu0.dcache.replacements                554870                       # number of replacements (Count)
system.cpu0.dcache.LockedRMWReadReq.hits::cpu00.data          395                       # number of LockedRMWReadReq hits (Count)
system.cpu0.dcache.LockedRMWReadReq.hits::total          395                       # number of LockedRMWReadReq hits (Count)
system.cpu0.dcache.LockedRMWReadReq.misses::cpu00.data           43                       # number of LockedRMWReadReq misses (Count)
system.cpu0.dcache.LockedRMWReadReq.misses::total           43                       # number of LockedRMWReadReq misses (Count)
system.cpu0.dcache.LockedRMWReadReq.missLatency::cpu00.data      1141750                       # number of LockedRMWReadReq miss ticks (Tick)
system.cpu0.dcache.LockedRMWReadReq.missLatency::total      1141750                       # number of LockedRMWReadReq miss ticks (Tick)
system.cpu0.dcache.LockedRMWReadReq.accesses::cpu00.data          438                       # number of LockedRMWReadReq accesses(hits+misses) (Count)
system.cpu0.dcache.LockedRMWReadReq.accesses::total          438                       # number of LockedRMWReadReq accesses(hits+misses) (Count)
system.cpu0.dcache.LockedRMWReadReq.missRate::cpu00.data     0.098174                       # miss rate for LockedRMWReadReq accesses (Ratio)
system.cpu0.dcache.LockedRMWReadReq.missRate::total     0.098174                       # miss rate for LockedRMWReadReq accesses (Ratio)
system.cpu0.dcache.LockedRMWReadReq.avgMissLatency::cpu00.data 26552.325581                       # average LockedRMWReadReq miss latency ((Tick/Count))
system.cpu0.dcache.LockedRMWReadReq.avgMissLatency::total 26552.325581                       # average LockedRMWReadReq miss latency ((Tick/Count))
system.cpu0.dcache.LockedRMWReadReq.mshrMisses::cpu00.data           43                       # number of LockedRMWReadReq MSHR misses (Count)
system.cpu0.dcache.LockedRMWReadReq.mshrMisses::total           43                       # number of LockedRMWReadReq MSHR misses (Count)
system.cpu0.dcache.LockedRMWReadReq.mshrMissLatency::cpu00.data      3186750                       # number of LockedRMWReadReq MSHR miss ticks (Tick)
system.cpu0.dcache.LockedRMWReadReq.mshrMissLatency::total      3186750                       # number of LockedRMWReadReq MSHR miss ticks (Tick)
system.cpu0.dcache.LockedRMWReadReq.mshrMissRate::cpu00.data     0.098174                       # mshr miss rate for LockedRMWReadReq accesses (Ratio)
system.cpu0.dcache.LockedRMWReadReq.mshrMissRate::total     0.098174                       # mshr miss rate for LockedRMWReadReq accesses (Ratio)
system.cpu0.dcache.LockedRMWReadReq.avgMshrMissLatency::cpu00.data 74110.465116                       # average LockedRMWReadReq mshr miss latency ((Tick/Count))
system.cpu0.dcache.LockedRMWReadReq.avgMshrMissLatency::total 74110.465116                       # average LockedRMWReadReq mshr miss latency ((Tick/Count))
system.cpu0.dcache.LockedRMWWriteReq.hits::cpu00.data          438                       # number of LockedRMWWriteReq hits (Count)
system.cpu0.dcache.LockedRMWWriteReq.hits::total          438                       # number of LockedRMWWriteReq hits (Count)
system.cpu0.dcache.LockedRMWWriteReq.accesses::cpu00.data          438                       # number of LockedRMWWriteReq accesses(hits+misses) (Count)
system.cpu0.dcache.LockedRMWWriteReq.accesses::total          438                       # number of LockedRMWWriteReq accesses(hits+misses) (Count)
system.cpu0.dcache.ReadReq.hits::cpu00.data      4654726                       # number of ReadReq hits (Count)
system.cpu0.dcache.ReadReq.hits::total        4654726                       # number of ReadReq hits (Count)
system.cpu0.dcache.ReadReq.misses::cpu00.data      2545290                       # number of ReadReq misses (Count)
system.cpu0.dcache.ReadReq.misses::total      2545290                       # number of ReadReq misses (Count)
system.cpu0.dcache.ReadReq.missLatency::cpu00.data 156108570750                       # number of ReadReq miss ticks (Tick)
system.cpu0.dcache.ReadReq.missLatency::total 156108570750                       # number of ReadReq miss ticks (Tick)
system.cpu0.dcache.ReadReq.accesses::cpu00.data      7200016                       # number of ReadReq accesses(hits+misses) (Count)
system.cpu0.dcache.ReadReq.accesses::total      7200016                       # number of ReadReq accesses(hits+misses) (Count)
system.cpu0.dcache.ReadReq.missRate::cpu00.data     0.353512                       # miss rate for ReadReq accesses (Ratio)
system.cpu0.dcache.ReadReq.missRate::total     0.353512                       # miss rate for ReadReq accesses (Ratio)
system.cpu0.dcache.ReadReq.avgMissLatency::cpu00.data 61332.331778                       # average ReadReq miss latency ((Tick/Count))
system.cpu0.dcache.ReadReq.avgMissLatency::total 61332.331778                       # average ReadReq miss latency ((Tick/Count))
system.cpu0.dcache.ReadReq.mshrHits::cpu00.data      2068108                       # number of ReadReq MSHR hits (Count)
system.cpu0.dcache.ReadReq.mshrHits::total      2068108                       # number of ReadReq MSHR hits (Count)
system.cpu0.dcache.ReadReq.mshrMisses::cpu00.data       477182                       # number of ReadReq MSHR misses (Count)
system.cpu0.dcache.ReadReq.mshrMisses::total       477182                       # number of ReadReq MSHR misses (Count)
system.cpu0.dcache.ReadReq.mshrMissLatency::cpu00.data  44402781250                       # number of ReadReq MSHR miss ticks (Tick)
system.cpu0.dcache.ReadReq.mshrMissLatency::total  44402781250                       # number of ReadReq MSHR miss ticks (Tick)
system.cpu0.dcache.ReadReq.mshrMissRate::cpu00.data     0.066275                       # mshr miss rate for ReadReq accesses (Ratio)
system.cpu0.dcache.ReadReq.mshrMissRate::total     0.066275                       # mshr miss rate for ReadReq accesses (Ratio)
system.cpu0.dcache.ReadReq.avgMshrMissLatency::cpu00.data 93052.087568                       # average ReadReq mshr miss latency ((Tick/Count))
system.cpu0.dcache.ReadReq.avgMshrMissLatency::total 93052.087568                       # average ReadReq mshr miss latency ((Tick/Count))
system.cpu0.dcache.WriteReq.hits::cpu00.data       618125                       # number of WriteReq hits (Count)
system.cpu0.dcache.WriteReq.hits::total        618125                       # number of WriteReq hits (Count)
system.cpu0.dcache.WriteReq.misses::cpu00.data        79254                       # number of WriteReq misses (Count)
system.cpu0.dcache.WriteReq.misses::total        79254                       # number of WriteReq misses (Count)
system.cpu0.dcache.WriteReq.missLatency::cpu00.data  11892114494                       # number of WriteReq miss ticks (Tick)
system.cpu0.dcache.WriteReq.missLatency::total  11892114494                       # number of WriteReq miss ticks (Tick)
system.cpu0.dcache.WriteReq.accesses::cpu00.data       697379                       # number of WriteReq accesses(hits+misses) (Count)
system.cpu0.dcache.WriteReq.accesses::total       697379                       # number of WriteReq accesses(hits+misses) (Count)
system.cpu0.dcache.WriteReq.missRate::cpu00.data     0.113646                       # miss rate for WriteReq accesses (Ratio)
system.cpu0.dcache.WriteReq.missRate::total     0.113646                       # miss rate for WriteReq accesses (Ratio)
system.cpu0.dcache.WriteReq.avgMissLatency::cpu00.data 150050.653519                       # average WriteReq miss latency ((Tick/Count))
system.cpu0.dcache.WriteReq.avgMissLatency::total 150050.653519                       # average WriteReq miss latency ((Tick/Count))
system.cpu0.dcache.WriteReq.mshrHits::cpu00.data            7                       # number of WriteReq MSHR hits (Count)
system.cpu0.dcache.WriteReq.mshrHits::total            7                       # number of WriteReq MSHR hits (Count)
system.cpu0.dcache.WriteReq.mshrMisses::cpu00.data        79247                       # number of WriteReq MSHR misses (Count)
system.cpu0.dcache.WriteReq.mshrMisses::total        79247                       # number of WriteReq MSHR misses (Count)
system.cpu0.dcache.WriteReq.mshrMissLatency::cpu00.data  11852061493                       # number of WriteReq MSHR miss ticks (Tick)
system.cpu0.dcache.WriteReq.mshrMissLatency::total  11852061493                       # number of WriteReq MSHR miss ticks (Tick)
system.cpu0.dcache.WriteReq.mshrMissRate::cpu00.data     0.113635                       # mshr miss rate for WriteReq accesses (Ratio)
system.cpu0.dcache.WriteReq.mshrMissRate::total     0.113635                       # mshr miss rate for WriteReq accesses (Ratio)
system.cpu0.dcache.WriteReq.avgMshrMissLatency::cpu00.data 149558.487930                       # average WriteReq mshr miss latency ((Tick/Count))
system.cpu0.dcache.WriteReq.avgMshrMissLatency::total 149558.487930                       # average WriteReq mshr miss latency ((Tick/Count))
system.cpu0.dcache.power_state.pwrStateResidencyTicks::UNDEFINED  24293823500                       # Cumulative time (in ticks) in various power states (Tick)
system.cpu0.dcache.tags.tagsInUse         1021.247210                       # Average ticks per tags in use ((Tick/Count))
system.cpu0.dcache.tags.totalRefs             5830158                       # Total number of references to valid blocks. (Count)
system.cpu0.dcache.tags.sampledRefs            556336                       # Sample count of references to valid blocks. (Count)
system.cpu0.dcache.tags.avgRefs             10.479563                       # Average number of references to valid blocks. ((Count/Count))
system.cpu0.dcache.tags.warmupTick             149000                       # The tick when the warmup percentage was hit. (Tick)
system.cpu0.dcache.tags.occupancies::cpu00.data  1021.247210                       # Average occupied blocks per tick, per requestor ((Count/Tick))
system.cpu0.dcache.tags.avgOccs::cpu00.data     0.997312                       # Average percentage of cache occupancy ((Ratio/Tick))
system.cpu0.dcache.tags.avgOccs::total       0.997312                       # Average percentage of cache occupancy ((Ratio/Tick))
system.cpu0.dcache.tags.occupanciesTaskId::1024         1024                       # Occupied blocks per task id (Count)
system.cpu0.dcache.tags.ageTaskId_1024::0          145                       # Occupied blocks per task id, per block age (Count)
system.cpu0.dcache.tags.ageTaskId_1024::1          878                       # Occupied blocks per task id, per block age (Count)
system.cpu0.dcache.tags.ageTaskId_1024::4            1                       # Occupied blocks per task id, per block age (Count)
system.cpu0.dcache.tags.ratioOccsTaskId::1024            1                       # Ratio of occupied blocks and all blocks, per task id (Ratio)
system.cpu0.dcache.tags.tagAccesses          16352878                       # Number of tag accesses (Count)
system.cpu0.dcache.tags.dataAccesses         16352878                       # Number of data accesses (Count)
system.cpu0.dcache.tags.power_state.pwrStateResidencyTicks::UNDEFINED  24293823500                       # Cumulative time (in ticks) in various power states (Tick)
system.cpu0.decode.idleCycles                 3105569                       # Number of cycles decode is idle (Cycle)
system.cpu0.decode.blockedCycles             87363373                       # Number of cycles decode is blocked (Cycle)
system.cpu0.decode.runCycles                  4594074                       # Number of cycles decode is running (Cycle)
system.cpu0.decode.unblockCycles              1684873                       # Number of cycles decode is unblocking (Cycle)
system.cpu0.decode.squashCycles                 12725                       # Number of cycles decode is squashing (Cycle)
system.cpu0.decode.branchResolved             1559872                       # Number of times decode resolved a branch (Count)
system.cpu0.decode.branchMispred                 1370                       # Number of times decode detected a branch misprediction (Count)
system.cpu0.decode.decodedInsts              44159577                       # Number of instructions handled by decode (Count)
system.cpu0.decode.squashedInsts                 6623                       # Number of squashed instructions handled by decode (Count)
system.cpu0.dtb_walker_cache.blockedCycles::no_mshrs            0                       # number of cycles access was blocked (Cycle)
system.cpu0.dtb_walker_cache.blockedCycles::no_targets            0                       # number of cycles access was blocked (Cycle)
system.cpu0.dtb_walker_cache.blockedCauses::no_mshrs            0                       # number of times access was blocked (Count)
system.cpu0.dtb_walker_cache.blockedCauses::no_targets            0                       # number of times access was blocked (Count)
system.cpu0.dtb_walker_cache.avgBlocked::no_mshrs          nan                       # average number of cycles each access was blocked ((Cycle/Count))
system.cpu0.dtb_walker_cache.avgBlocked::no_targets          nan                       # average number of cycles each access was blocked ((Cycle/Count))
system.cpu0.dtb_walker_cache.replacements            0                       # number of replacements (Count)
system.cpu0.dtb_walker_cache.power_state.pwrStateResidencyTicks::UNDEFINED  24293823500                       # Cumulative time (in ticks) in various power states (Tick)
system.cpu0.dtb_walker_cache.tags.tagsInUse            0                       # Average ticks per tags in use ((Tick/Count))
system.cpu0.dtb_walker_cache.tags.totalRefs            0                       # Total number of references to valid blocks. (Count)
system.cpu0.dtb_walker_cache.tags.sampledRefs            0                       # Sample count of references to valid blocks. (Count)
system.cpu0.dtb_walker_cache.tags.avgRefs          nan                       # Average number of references to valid blocks. ((Count/Count))
system.cpu0.dtb_walker_cache.tags.warmupTick            0                       # The tick when the warmup percentage was hit. (Tick)
system.cpu0.dtb_walker_cache.tags.tagAccesses            0                       # Number of tag accesses (Count)
system.cpu0.dtb_walker_cache.tags.dataAccesses            0                       # Number of data accesses (Count)
system.cpu0.dtb_walker_cache.tags.power_state.pwrStateResidencyTicks::UNDEFINED  24293823500                       # Cumulative time (in ticks) in various power states (Tick)
system.cpu0.fetch.icacheStallCycles           4038039                       # Number of cycles fetch is stalled on an Icache miss (Cycle)
system.cpu0.fetch.insts                      24193169                       # Number of instructions fetch has processed (Count)
system.cpu0.fetch.branches                    4909866                       # Number of branches that fetch encountered (Count)
system.cpu0.fetch.predictedBranches           1590655                       # Number of branches that fetch has predicted taken (Count)
system.cpu0.fetch.cycles                     92695564                       # Number of cycles fetch has run and was not squashing or blocked (Cycle)
system.cpu0.fetch.squashCycles                  28148                       # Number of cycles fetch has spent squashing (Cycle)
system.cpu0.fetch.tlbCycles                         1                       # Number of cycles fetch has spent waiting for tlb (Cycle)
system.cpu0.fetch.miscStallCycles                1697                       # Number of cycles fetch has spent waiting on interrupts, or bad addresses, or out of MSHRs (Cycle)
system.cpu0.fetch.pendingTrapStallCycles        11179                       # Number of stall cycles due to pending traps (Cycle)
system.cpu0.fetch.icacheWaitRetryStallCycles           60                       # Number of stall cycles due to full MSHR (Cycle)
system.cpu0.fetch.cacheLines                  3911123                       # Number of cache lines fetched (Count)
system.cpu0.fetch.icacheSquashes                 3385                       # Number of outstanding Icache misses that were squashed (Count)
system.cpu0.fetch.nisnDist::samples          96760614                       # Number of instructions fetched each cycle (Total) (Count)
system.cpu0.fetch.nisnDist::mean             0.457445                       # Number of instructions fetched each cycle (Total) (Count)
system.cpu0.fetch.nisnDist::stdev            1.755843                       # Number of instructions fetched each cycle (Total) (Count)
system.cpu0.fetch.nisnDist::underflows              0      0.00%      0.00% # Number of instructions fetched each cycle (Total) (Count)
system.cpu0.fetch.nisnDist::0                89513567     92.51%     92.51% # Number of instructions fetched each cycle (Total) (Count)
system.cpu0.fetch.nisnDist::1                  555131      0.57%     93.08% # Number of instructions fetched each cycle (Total) (Count)
system.cpu0.fetch.nisnDist::2                  217944      0.23%     93.31% # Number of instructions fetched each cycle (Total) (Count)
system.cpu0.fetch.nisnDist::3                 1414514      1.46%     94.77% # Number of instructions fetched each cycle (Total) (Count)
system.cpu0.fetch.nisnDist::4                   68448      0.07%     94.84% # Number of instructions fetched each cycle (Total) (Count)
system.cpu0.fetch.nisnDist::5                  188162      0.19%     95.04% # Number of instructions fetched each cycle (Total) (Count)
system.cpu0.fetch.nisnDist::6                  179668      0.19%     95.22% # Number of instructions fetched each cycle (Total) (Count)
system.cpu0.fetch.nisnDist::7                  249928      0.26%     95.48% # Number of instructions fetched each cycle (Total) (Count)
system.cpu0.fetch.nisnDist::8                 4373252      4.52%    100.00% # Number of instructions fetched each cycle (Total) (Count)
system.cpu0.fetch.nisnDist::overflows               0      0.00%    100.00% # Number of instructions fetched each cycle (Total) (Count)
system.cpu0.fetch.nisnDist::min_value               0                       # Number of instructions fetched each cycle (Total) (Count)
system.cpu0.fetch.nisnDist::max_value               8                       # Number of instructions fetched each cycle (Total) (Count)
system.cpu0.fetch.nisnDist::total            96760614                       # Number of instructions fetched each cycle (Total) (Count)
system.cpu0.fetch.branchRate                 0.050526                       # Number of branch fetches per cycle (Ratio)
system.cpu0.fetch.rate                       0.248964                       # Number of inst fetches per cycle ((Count/Cycle))
system.cpu0.icache.demandHits::cpu00.inst      3907657                       # number of demand (read+write) hits (Count)
system.cpu0.icache.demandHits::total          3907657                       # number of demand (read+write) hits (Count)
system.cpu0.icache.overallHits::cpu00.inst      3907657                       # number of overall hits (Count)
system.cpu0.icache.overallHits::total         3907657                       # number of overall hits (Count)
system.cpu0.icache.demandMisses::cpu00.inst         3465                       # number of demand (read+write) misses (Count)
system.cpu0.icache.demandMisses::total           3465                       # number of demand (read+write) misses (Count)
system.cpu0.icache.overallMisses::cpu00.inst         3465                       # number of overall misses (Count)
system.cpu0.icache.overallMisses::total          3465                       # number of overall misses (Count)
system.cpu0.icache.demandMissLatency::cpu00.inst    228504999                       # number of demand (read+write) miss ticks (Tick)
system.cpu0.icache.demandMissLatency::total    228504999                       # number of demand (read+write) miss ticks (Tick)
system.cpu0.icache.overallMissLatency::cpu00.inst    228504999                       # number of overall miss ticks (Tick)
system.cpu0.icache.overallMissLatency::total    228504999                       # number of overall miss ticks (Tick)
system.cpu0.icache.demandAccesses::cpu00.inst      3911122                       # number of demand (read+write) accesses (Count)
system.cpu0.icache.demandAccesses::total      3911122                       # number of demand (read+write) accesses (Count)
system.cpu0.icache.overallAccesses::cpu00.inst      3911122                       # number of overall (read+write) accesses (Count)
system.cpu0.icache.overallAccesses::total      3911122                       # number of overall (read+write) accesses (Count)
system.cpu0.icache.demandMissRate::cpu00.inst     0.000886                       # miss rate for demand accesses (Ratio)
system.cpu0.icache.demandMissRate::total     0.000886                       # miss rate for demand accesses (Ratio)
system.cpu0.icache.overallMissRate::cpu00.inst     0.000886                       # miss rate for overall accesses (Ratio)
system.cpu0.icache.overallMissRate::total     0.000886                       # miss rate for overall accesses (Ratio)
system.cpu0.icache.demandAvgMissLatency::cpu00.inst 65946.608658                       # average overall miss latency in ticks ((Tick/Count))
system.cpu0.icache.demandAvgMissLatency::total 65946.608658                       # average overall miss latency in ticks ((Tick/Count))
system.cpu0.icache.overallAvgMissLatency::cpu00.inst 65946.608658                       # average overall miss latency ((Tick/Count))
system.cpu0.icache.overallAvgMissLatency::total 65946.608658                       # average overall miss latency ((Tick/Count))
system.cpu0.icache.blockedCycles::no_mshrs         1052                       # number of cycles access was blocked (Cycle)
system.cpu0.icache.blockedCycles::no_targets            0                       # number of cycles access was blocked (Cycle)
system.cpu0.icache.blockedCauses::no_mshrs           14                       # number of times access was blocked (Count)
system.cpu0.icache.blockedCauses::no_targets            0                       # number of times access was blocked (Count)
system.cpu0.icache.avgBlocked::no_mshrs     75.142857                       # average number of cycles each access was blocked ((Cycle/Count))
system.cpu0.icache.avgBlocked::no_targets          nan                       # average number of cycles each access was blocked ((Cycle/Count))
system.cpu0.icache.writebacks::writebacks         2229                       # number of writebacks (Count)
system.cpu0.icache.writebacks::total             2229                       # number of writebacks (Count)
system.cpu0.icache.demandMshrHits::cpu00.inst          722                       # number of demand (read+write) MSHR hits (Count)
system.cpu0.icache.demandMshrHits::total          722                       # number of demand (read+write) MSHR hits (Count)
system.cpu0.icache.overallMshrHits::cpu00.inst          722                       # number of overall MSHR hits (Count)
system.cpu0.icache.overallMshrHits::total          722                       # number of overall MSHR hits (Count)
system.cpu0.icache.demandMshrMisses::cpu00.inst         2743                       # number of demand (read+write) MSHR misses (Count)
system.cpu0.icache.demandMshrMisses::total         2743                       # number of demand (read+write) MSHR misses (Count)
system.cpu0.icache.overallMshrMisses::cpu00.inst         2743                       # number of overall MSHR misses (Count)
system.cpu0.icache.overallMshrMisses::total         2743                       # number of overall MSHR misses (Count)
system.cpu0.icache.demandMshrMissLatency::cpu00.inst    186169499                       # number of demand (read+write) MSHR miss ticks (Tick)
system.cpu0.icache.demandMshrMissLatency::total    186169499                       # number of demand (read+write) MSHR miss ticks (Tick)
system.cpu0.icache.overallMshrMissLatency::cpu00.inst    186169499                       # number of overall MSHR miss ticks (Tick)
system.cpu0.icache.overallMshrMissLatency::total    186169499                       # number of overall MSHR miss ticks (Tick)
system.cpu0.icache.demandMshrMissRate::cpu00.inst     0.000701                       # mshr miss ratio for demand accesses (Ratio)
system.cpu0.icache.demandMshrMissRate::total     0.000701                       # mshr miss ratio for demand accesses (Ratio)
system.cpu0.icache.overallMshrMissRate::cpu00.inst     0.000701                       # mshr miss ratio for overall accesses (Ratio)
system.cpu0.icache.overallMshrMissRate::total     0.000701                       # mshr miss ratio for overall accesses (Ratio)
system.cpu0.icache.demandAvgMshrMissLatency::cpu00.inst 67870.761575                       # average overall mshr miss latency ((Tick/Count))
system.cpu0.icache.demandAvgMshrMissLatency::total 67870.761575                       # average overall mshr miss latency ((Tick/Count))
system.cpu0.icache.overallAvgMshrMissLatency::cpu00.inst 67870.761575                       # average overall mshr miss latency ((Tick/Count))
system.cpu0.icache.overallAvgMshrMissLatency::total 67870.761575                       # average overall mshr miss latency ((Tick/Count))
system.cpu0.icache.replacements                  2229                       # number of replacements (Count)
system.cpu0.icache.ReadReq.hits::cpu00.inst      3907657                       # number of ReadReq hits (Count)
system.cpu0.icache.ReadReq.hits::total        3907657                       # number of ReadReq hits (Count)
system.cpu0.icache.ReadReq.misses::cpu00.inst         3465                       # number of ReadReq misses (Count)
system.cpu0.icache.ReadReq.misses::total         3465                       # number of ReadReq misses (Count)
system.cpu0.icache.ReadReq.missLatency::cpu00.inst    228504999                       # number of ReadReq miss ticks (Tick)
system.cpu0.icache.ReadReq.missLatency::total    228504999                       # number of ReadReq miss ticks (Tick)
system.cpu0.icache.ReadReq.accesses::cpu00.inst      3911122                       # number of ReadReq accesses(hits+misses) (Count)
system.cpu0.icache.ReadReq.accesses::total      3911122                       # number of ReadReq accesses(hits+misses) (Count)
system.cpu0.icache.ReadReq.missRate::cpu00.inst     0.000886                       # miss rate for ReadReq accesses (Ratio)
system.cpu0.icache.ReadReq.missRate::total     0.000886                       # miss rate for ReadReq accesses (Ratio)
system.cpu0.icache.ReadReq.avgMissLatency::cpu00.inst 65946.608658                       # average ReadReq miss latency ((Tick/Count))
system.cpu0.icache.ReadReq.avgMissLatency::total 65946.608658                       # average ReadReq miss latency ((Tick/Count))
system.cpu0.icache.ReadReq.mshrHits::cpu00.inst          722                       # number of ReadReq MSHR hits (Count)
system.cpu0.icache.ReadReq.mshrHits::total          722                       # number of ReadReq MSHR hits (Count)
system.cpu0.icache.ReadReq.mshrMisses::cpu00.inst         2743                       # number of ReadReq MSHR misses (Count)
system.cpu0.icache.ReadReq.mshrMisses::total         2743                       # number of ReadReq MSHR misses (Count)
system.cpu0.icache.ReadReq.mshrMissLatency::cpu00.inst    186169499                       # number of ReadReq MSHR miss ticks (Tick)
system.cpu0.icache.ReadReq.mshrMissLatency::total    186169499                       # number of ReadReq MSHR miss ticks (Tick)
system.cpu0.icache.ReadReq.mshrMissRate::cpu00.inst     0.000701                       # mshr miss rate for ReadReq accesses (Ratio)
system.cpu0.icache.ReadReq.mshrMissRate::total     0.000701                       # mshr miss rate for ReadReq accesses (Ratio)
system.cpu0.icache.ReadReq.avgMshrMissLatency::cpu00.inst 67870.761575                       # average ReadReq mshr miss latency ((Tick/Count))
system.cpu0.icache.ReadReq.avgMshrMissLatency::total 67870.761575                       # average ReadReq mshr miss latency ((Tick/Count))
system.cpu0.icache.power_state.pwrStateResidencyTicks::UNDEFINED  24293823500                       # Cumulative time (in ticks) in various power states (Tick)
system.cpu0.icache.tags.tagsInUse          511.285590                       # Average ticks per tags in use ((Tick/Count))
system.cpu0.icache.tags.totalRefs             3910399                       # Total number of references to valid blocks. (Count)
system.cpu0.icache.tags.sampledRefs              2742                       # Sample count of references to valid blocks. (Count)
system.cpu0.icache.tags.avgRefs           1426.111962                       # Average number of references to valid blocks. ((Count/Count))
system.cpu0.icache.tags.warmupTick              80000                       # The tick when the warmup percentage was hit. (Tick)
system.cpu0.icache.tags.occupancies::cpu00.inst   511.285590                       # Average occupied blocks per tick, per requestor ((Count/Tick))
system.cpu0.icache.tags.avgOccs::cpu00.inst     0.998605                       # Average percentage of cache occupancy ((Ratio/Tick))
system.cpu0.icache.tags.avgOccs::total       0.998605                       # Average percentage of cache occupancy ((Ratio/Tick))
system.cpu0.icache.tags.occupanciesTaskId::1024          512                       # Occupied blocks per task id (Count)
system.cpu0.icache.tags.ageTaskId_1024::0          114                       # Occupied blocks per task id, per block age (Count)
system.cpu0.icache.tags.ageTaskId_1024::1           71                       # Occupied blocks per task id, per block age (Count)
system.cpu0.icache.tags.ageTaskId_1024::4          327                       # Occupied blocks per task id, per block age (Count)
system.cpu0.icache.tags.ratioOccsTaskId::1024            1                       # Ratio of occupied blocks and all blocks, per task id (Ratio)
system.cpu0.icache.tags.tagAccesses           7824986                       # Number of tag accesses (Count)
system.cpu0.icache.tags.dataAccesses          7824986                       # Number of data accesses (Count)
system.cpu0.icache.tags.power_state.pwrStateResidencyTicks::UNDEFINED  24293823500                       # Cumulative time (in ticks) in various power states (Tick)
system.cpu0.iew.idleCycles                          0                       # Number of cycles IEW is idle (Cycle)
system.cpu0.iew.squashCycles                    12725                       # Number of cycles IEW is squashing (Cycle)
system.cpu0.iew.blockCycles                  28563134                       # Number of cycles IEW is blocking (Cycle)
system.cpu0.iew.unblockCycles                 7650051                       # Number of cycles IEW is unblocking (Cycle)
system.cpu0.iew.dispatchedInsts              44063406                       # Number of instructions dispatched to IQ (Count)
system.cpu0.iew.dispSquashedInsts                1119                       # Number of squashed instructions skipped by dispatch (Count)
system.cpu0.iew.dispLoadInsts                 7231067                       # Number of dispatched load instructions (Count)
system.cpu0.iew.dispStoreInsts                 722340                       # Number of dispatched store instructions (Count)
system.cpu0.iew.dispNonSpecInsts                  769                       # Number of dispatched non-speculative instructions (Count)
system.cpu0.iew.iqFullEvents                   252950                       # Number of times the IQ has become full, causing a stall (Count)
system.cpu0.iew.lsqFullEvents                 7392350                       # Number of times the LSQ has become full, causing a stall (Count)
system.cpu0.iew.memOrderViolationEvents           261                       # Number of memory order violations (Count)
system.cpu0.iew.predictedTakenIncorrect          2809                       # Number of branches that were predicted taken incorrectly (Count)
system.cpu0.iew.predictedNotTakenIncorrect         8082                       # Number of branches that were predicted not taken incorrectly (Count)
system.cpu0.iew.branchMispredicts               10891                       # Number of branch mispredicts detected at execute (Count)
system.cpu0.iew.instsToCommit                43892810                       # Cumulative count of insts sent to commit (Count)
system.cpu0.iew.writebackCount               43883589                       # Cumulative count of insts written-back (Count)
system.cpu0.iew.producerInst                 31936451                       # Number of instructions producing a value (Count)
system.cpu0.iew.consumerInst                 52539611                       # Number of instructions consuming a value (Count)
system.cpu0.iew.wbRate                       0.451592                       # Insts written-back per cycle ((Count/Cycle))
system.cpu0.iew.wbFanout                     0.607855                       # Average fanout of values written-back ((Count/Count))
system.cpu0.interrupts.clk_domain.clock          4000                       # Clock period in ticks (Tick)
system.cpu0.itb_walker_cache.blockedCycles::no_mshrs            0                       # number of cycles access was blocked (Cycle)
system.cpu0.itb_walker_cache.blockedCycles::no_targets            0                       # number of cycles access was blocked (Cycle)
system.cpu0.itb_walker_cache.blockedCauses::no_mshrs            0                       # number of times access was blocked (Count)
system.cpu0.itb_walker_cache.blockedCauses::no_targets            0                       # number of times access was blocked (Count)
system.cpu0.itb_walker_cache.avgBlocked::no_mshrs          nan                       # average number of cycles each access was blocked ((Cycle/Count))
system.cpu0.itb_walker_cache.avgBlocked::no_targets          nan                       # average number of cycles each access was blocked ((Cycle/Count))
system.cpu0.itb_walker_cache.replacements            0                       # number of replacements (Count)
system.cpu0.itb_walker_cache.power_state.pwrStateResidencyTicks::UNDEFINED  24293823500                       # Cumulative time (in ticks) in various power states (Tick)
[...]
system.membus.snoopFanout::98                       0      0.00%    100.00% # Request fanout histogram (Count)
system.membus.snoopFanout::99                       0      0.00%    100.00% # Request fanout histogram (Count)
system.membus.snoopFanout::100                      0      0.00%    100.00% # Request fanout histogram (Count)
system.membus.snoopFanout::101                      0      0.00%    100.00% # Request fanout histogram (Count)
system.membus.snoopFanout::102                      0      0.00%    100.00% # Request fanout histogram (Count)
system.membus.snoopFanout::103                      0      0.00%    100.00% # Request fanout histogram (Count)
system.membus.snoopFanout::104                      0      0.00%    100.00% # Request fanout histogram (Count)
system.membus.snoopFanout::105                      0      0.00%    100.00% # Request fanout histogram (Count)
system.membus.snoopFanout::106                      0      0.00%    100.00% # Request fanout histogram (Count)
system.membus.snoopFanout::107                      0      0.00%    100.00% # Request fanout histogram (Count)
system.membus.snoopFanout::108                      0      0.00%    100.00% # Request fanout histogram (Count)
system.membus.snoopFanout::109                      0      0.00%    100.00% # Request fanout histogram (Count)
system.membus.snoopFanout::110                      0      0.00%    100.00% # Request fanout histogram (Count)
system.membus.snoopFanout::111                      0      0.00%    100.00% # Request fanout histogram (Count)
system.membus.snoopFanout::112                      0      0.00%    100.00% # Request fanout histogram (Count)
system.membus.snoopFanout::113                      0      0.00%    100.00% # Request fanout histogram (Count)
system.membus.snoopFanout::114                      0      0.00%    100.00% # Request fanout histogram (Count)
system.membus.snoopFanout::115                      0      0.00%    100.00% # Request fanout histogram (Count)
system.membus.snoopFanout::116                      0      0.00%    100.00% # Request fanout histogram (Count)
system.membus.snoopFanout::117                      0      0.00%    100.00% # Request fanout histogram (Count)
system.membus.snoopFanout::118                      0      0.00%    100.00% # Request fanout histogram (Count)
system.membus.snoopFanout::119                      0      0.00%    100.00% # Request fanout histogram (Count)
system.membus.snoopFanout::120                      0      0.00%    100.00% # Request fanout histogram (Count)
system.membus.snoopFanout::121                      0      0.00%    100.00% # Request fanout histogram (Count)
system.membus.snoopFanout::122                      0      0.00%    100.00% # Request fanout histogram (Count)
system.membus.snoopFanout::123                      0      0.00%    100.00% # Request fanout histogram (Count)
system.membus.snoopFanout::124                      0      0.00%    100.00% # Request fanout histogram (Count)
system.membus.snoopFanout::125                      0      0.00%    100.00% # Request fanout histogram (Count)
system.membus.snoopFanout::126                      0      0.00%    100.00% # Request fanout histogram (Count)
system.membus.snoopFanout::127                      0      0.00%    100.00% # Request fanout histogram (Count)
system.membus.snoopFanout::128                      0      0.00%    100.00% # Request fanout histogram (Count)
system.membus.snoopFanout::overflows                0      0.00%    100.00% # Request fanout histogram (Count)
system.membus.snoopFanout::min_value                0                       # Request fanout histogram (Count)
system.membus.snoopFanout::max_value               35                       # Request fanout histogram (Count)
system.membus.snoopFanout::total              5945359                       # Request fanout histogram (Count)
system.membus.power_state.pwrStateResidencyTicks::UNDEFINED  24293823500                       # Cumulative time (in ticks) in various power states (Tick)
system.membus.reqLayer64.occupancy         6035427042                       # Layer occupancy (ticks) (Tick)
system.membus.reqLayer64.utilization              0.2                       # Layer utilization (Ratio)
system.membus.reqLayer65.occupancy         6040526450                       # Layer occupancy (ticks) (Tick)
system.membus.reqLayer65.utilization              0.2                       # Layer utilization (Ratio)
system.membus.reqLayer66.occupancy         6039817323                       # Layer occupancy (ticks) (Tick)
system.membus.reqLayer66.utilization              0.2                       # Layer utilization (Ratio)
system.membus.reqLayer67.occupancy         6041991154                       # Layer occupancy (ticks) (Tick)
system.membus.reqLayer67.utilization              0.2                       # Layer utilization (Ratio)
system.membus.respLayer1.occupancy           13821995                       # Layer occupancy (ticks) (Tick)
system.membus.respLayer1.utilization              0.0                       # Layer utilization (Ratio)
system.membus.respLayer101.occupancy           324249                       # Layer occupancy (ticks) (Tick)
system.membus.respLayer101.utilization            0.0                       # Layer utilization (Ratio)
system.membus.respLayer102.occupancy        879896294                       # Layer occupancy (ticks) (Tick)
system.membus.respLayer102.utilization            0.0                       # Layer utilization (Ratio)
system.membus.respLayer106.occupancy           363251                       # Layer occupancy (ticks) (Tick)
system.membus.respLayer106.utilization            0.0                       # Layer utilization (Ratio)
system.membus.respLayer107.occupancy        882774838                       # Layer occupancy (ticks) (Tick)
system.membus.respLayer107.utilization            0.0                       # Layer utilization (Ratio)
system.membus.respLayer11.occupancy            705498                       # Layer occupancy (ticks) (Tick)
system.membus.respLayer11.utilization             0.0                       # Layer utilization (Ratio)
system.membus.respLayer111.occupancy           363750                       # Layer occupancy (ticks) (Tick)
system.membus.respLayer111.utilization            0.0                       # Layer utilization (Ratio)
system.membus.respLayer112.occupancy        880686608                       # Layer occupancy (ticks) (Tick)
system.membus.respLayer112.utilization            0.0                       # Layer utilization (Ratio)
system.membus.respLayer116.occupancy           342001                       # Layer occupancy (ticks) (Tick)
system.membus.respLayer116.utilization            0.0                       # Layer utilization (Ratio)
system.membus.respLayer117.occupancy        880358083                       # Layer occupancy (ticks) (Tick)
system.membus.respLayer117.utilization            0.0                       # Layer utilization (Ratio)
system.membus.respLayer12.occupancy         880053561                       # Layer occupancy (ticks) (Tick)
system.membus.respLayer12.utilization             0.0                       # Layer utilization (Ratio)
system.membus.respLayer121.occupancy           341500                       # Layer occupancy (ticks) (Tick)
system.membus.respLayer121.utilization            0.0                       # Layer utilization (Ratio)
system.membus.respLayer122.occupancy        880135037                       # Layer occupancy (ticks) (Tick)
system.membus.respLayer122.utilization            0.0                       # Layer utilization (Ratio)
system.membus.respLayer126.occupancy           325000                       # Layer occupancy (ticks) (Tick)
system.membus.respLayer126.utilization            0.0                       # Layer utilization (Ratio)
system.membus.respLayer127.occupancy        881693858                       # Layer occupancy (ticks) (Tick)
system.membus.respLayer127.utilization            0.0                       # Layer utilization (Ratio)
system.membus.respLayer131.occupancy           323000                       # Layer occupancy (ticks) (Tick)
system.membus.respLayer131.utilization            0.0                       # Layer utilization (Ratio)
system.membus.respLayer132.occupancy        879813535                       # Layer occupancy (ticks) (Tick)
system.membus.respLayer132.utilization            0.0                       # Layer utilization (Ratio)
system.membus.respLayer136.occupancy           325749                       # Layer occupancy (ticks) (Tick)
system.membus.respLayer136.utilization            0.0                       # Layer utilization (Ratio)
system.membus.respLayer137.occupancy        880367372                       # Layer occupancy (ticks) (Tick)
system.membus.respLayer137.utilization            0.0                       # Layer utilization (Ratio)
system.membus.respLayer141.occupancy           361500                       # Layer occupancy (ticks) (Tick)
system.membus.respLayer141.utilization            0.0                       # Layer utilization (Ratio)
system.membus.respLayer142.occupancy        882306151                       # Layer occupancy (ticks) (Tick)
system.membus.respLayer142.utilization            0.0                       # Layer utilization (Ratio)
system.membus.respLayer146.occupancy           324750                       # Layer occupancy (ticks) (Tick)
system.membus.respLayer146.utilization            0.0                       # Layer utilization (Ratio)
system.membus.respLayer147.occupancy        883282310                       # Layer occupancy (ticks) (Tick)
system.membus.respLayer147.utilization            0.0                       # Layer utilization (Ratio)
system.membus.respLayer151.occupancy           325999                       # Layer occupancy (ticks) (Tick)
system.membus.respLayer151.utilization            0.0                       # Layer utilization (Ratio)
system.membus.respLayer152.occupancy        882852139                       # Layer occupancy (ticks) (Tick)
system.membus.respLayer152.utilization            0.0                       # Layer utilization (Ratio)
system.membus.respLayer156.occupancy           325750                       # Layer occupancy (ticks) (Tick)
system.membus.respLayer156.utilization            0.0                       # Layer utilization (Ratio)
system.membus.respLayer157.occupancy        880571554                       # Layer occupancy (ticks) (Tick)
system.membus.respLayer157.utilization            0.0                       # Layer utilization (Ratio)
system.membus.respLayer16.occupancy            673497                       # Layer occupancy (ticks) (Tick)
system.membus.respLayer16.utilization             0.0                       # Layer utilization (Ratio)
system.membus.respLayer17.occupancy         882157670                       # Layer occupancy (ticks) (Tick)
system.membus.respLayer17.utilization             0.0                       # Layer utilization (Ratio)
system.membus.respLayer2.occupancy         2807815827                       # Layer occupancy (ticks) (Tick)
system.membus.respLayer2.utilization              0.1                       # Layer utilization (Ratio)
system.membus.respLayer21.occupancy            326748                       # Layer occupancy (ticks) (Tick)
system.membus.respLayer21.utilization             0.0                       # Layer utilization (Ratio)
system.membus.respLayer22.occupancy         879963745                       # Layer occupancy (ticks) (Tick)
system.membus.respLayer22.utilization             0.0                       # Layer utilization (Ratio)
system.membus.respLayer26.occupancy            323999                       # Layer occupancy (ticks) (Tick)
system.membus.respLayer26.utilization             0.0                       # Layer utilization (Ratio)
system.membus.respLayer27.occupancy         882478295                       # Layer occupancy (ticks) (Tick)
system.membus.respLayer27.utilization             0.0                       # Layer utilization (Ratio)
system.membus.respLayer31.occupancy            324500                       # Layer occupancy (ticks) (Tick)
system.membus.respLayer31.utilization             0.0                       # Layer utilization (Ratio)
system.membus.respLayer32.occupancy         880807096                       # Layer occupancy (ticks) (Tick)
system.membus.respLayer32.utilization             0.0                       # Layer utilization (Ratio)
system.membus.respLayer36.occupancy            361749                       # Layer occupancy (ticks) (Tick)
system.membus.respLayer36.utilization             0.0                       # Layer utilization (Ratio)
system.membus.respLayer37.occupancy         880211347                       # Layer occupancy (ticks) (Tick)
system.membus.respLayer37.utilization             0.0                       # Layer utilization (Ratio)
system.membus.respLayer41.occupancy            362999                       # Layer occupancy (ticks) (Tick)
system.membus.respLayer41.utilization             0.0                       # Layer utilization (Ratio)
system.membus.respLayer42.occupancy         879940415                       # Layer occupancy (ticks) (Tick)
system.membus.respLayer42.utilization             0.0                       # Layer utilization (Ratio)
system.membus.respLayer46.occupancy            361499                       # Layer occupancy (ticks) (Tick)
system.membus.respLayer46.utilization             0.0                       # Layer utilization (Ratio)
system.membus.respLayer47.occupancy         882353585                       # Layer occupancy (ticks) (Tick)
system.membus.respLayer47.utilization             0.0                       # Layer utilization (Ratio)
system.membus.respLayer51.occupancy            341749                       # Layer occupancy (ticks) (Tick)
system.membus.respLayer51.utilization             0.0                       # Layer utilization (Ratio)
system.membus.respLayer52.occupancy         879518913                       # Layer occupancy (ticks) (Tick)
system.membus.respLayer52.utilization             0.0                       # Layer utilization (Ratio)
system.membus.respLayer56.occupancy            342499                       # Layer occupancy (ticks) (Tick)
system.membus.respLayer56.utilization             0.0                       # Layer utilization (Ratio)
system.membus.respLayer57.occupancy         880950835                       # Layer occupancy (ticks) (Tick)
system.membus.respLayer57.utilization             0.0                       # Layer utilization (Ratio)
system.membus.respLayer6.occupancy             685997                       # Layer occupancy (ticks) (Tick)
system.membus.respLayer6.utilization              0.0                       # Layer utilization (Ratio)
system.membus.respLayer61.occupancy            325499                       # Layer occupancy (ticks) (Tick)
system.membus.respLayer61.utilization             0.0                       # Layer utilization (Ratio)
system.membus.respLayer62.occupancy         880931155                       # Layer occupancy (ticks) (Tick)
system.membus.respLayer62.utilization             0.0                       # Layer utilization (Ratio)
system.membus.respLayer66.occupancy            363248                       # Layer occupancy (ticks) (Tick)
system.membus.respLayer66.utilization             0.0                       # Layer utilization (Ratio)
system.membus.respLayer67.occupancy         882645883                       # Layer occupancy (ticks) (Tick)
system.membus.respLayer67.utilization             0.0                       # Layer utilization (Ratio)
system.membus.respLayer7.occupancy          882806849                       # Layer occupancy (ticks) (Tick)
system.membus.respLayer7.utilization              0.0                       # Layer utilization (Ratio)
system.membus.respLayer71.occupancy            351999                       # Layer occupancy (ticks) (Tick)
system.membus.respLayer71.utilization             0.0                       # Layer utilization (Ratio)
system.membus.respLayer72.occupancy         882141632                       # Layer occupancy (ticks) (Tick)
system.membus.respLayer72.utilization             0.0                       # Layer utilization (Ratio)
system.membus.respLayer76.occupancy            341750                       # Layer occupancy (ticks) (Tick)
system.membus.respLayer76.utilization             0.0                       # Layer utilization (Ratio)
system.membus.respLayer77.occupancy         880947506                       # Layer occupancy (ticks) (Tick)
system.membus.respLayer77.utilization             0.0                       # Layer utilization (Ratio)
system.membus.respLayer81.occupancy            327000                       # Layer occupancy (ticks) (Tick)
system.membus.respLayer81.utilization             0.0                       # Layer utilization (Ratio)
system.membus.respLayer82.occupancy         879480182                       # Layer occupancy (ticks) (Tick)
system.membus.respLayer82.utilization             0.0                       # Layer utilization (Ratio)
system.membus.respLayer86.occupancy            342500                       # Layer occupancy (ticks) (Tick)
system.membus.respLayer86.utilization             0.0                       # Layer utilization (Ratio)
system.membus.respLayer87.occupancy         881809297                       # Layer occupancy (ticks) (Tick)
system.membus.respLayer87.utilization             0.0                       # Layer utilization (Ratio)
system.membus.respLayer91.occupancy            325749                       # Layer occupancy (ticks) (Tick)
system.membus.respLayer91.utilization             0.0                       # Layer utilization (Ratio)
system.membus.respLayer92.occupancy         880865219                       # Layer occupancy (ticks) (Tick)
system.membus.respLayer92.utilization             0.0                       # Layer utilization (Ratio)
system.membus.respLayer96.occupancy            326248                       # Layer occupancy (ticks) (Tick)
system.membus.respLayer96.utilization             0.0                       # Layer utilization (Ratio)
system.membus.respLayer97.occupancy         882417634                       # Layer occupancy (ticks) (Tick)
system.membus.respLayer97.utilization             0.0                       # Layer utilization (Ratio)
system.membus.snoop_filter.totRequests       11872286                       # Total number of requests made to the snoop filter. (Count)
system.membus.snoop_filter.hitSingleRequests      5925721                       # Number of requests hitting in the snoop filter with a single holder of the requested data. (Count)
system.membus.snoop_filter.hitMultiRequests        47613                       # Number of requests hitting in the snoop filter with multiple (>1) holders of the requested data. (Count)
system.membus.snoop_filter.totSnoops                0                       # Total number of snoops made to the snoop filter. (Count)
system.membus.snoop_filter.hitSingleSnoops            0                       # Number of snoops hitting in the snoop filter with a single holder of the requested data. (Count)
system.membus.snoop_filter.hitMultiSnoops            0                       # Number of snoops hitting in the snoop filter with multiple (>1) holders of the requested data. (Count)
system.voltage_domain.voltage                       1                       # Voltage in Volts (Volt)
system.workload.inst.arm                            0                       # number of arm instructions executed (Count)
system.workload.inst.quiesce                        0                       # number of quiesce instructions executed (Count)

---------- End Simulation Statistics   ----------
