Global frequency set at 1000000000000 ticks per second
gem5 Simulator System.  https://www.gem5.org
gem5 is copyrighted software; use the --copyright option for details.

gem5 version 22.0.0.1
gem5 compiled Jul 25 2022 13:56:51
gem5 started Aug 22 2022 18:18:31
gem5 executing on swsoc4, pid 27244
command line: ../gem5/build/X86/gem5.opt --outdir=./result/HBM_compare/test13/16channel se.py --cpu-type X86O3CPU --cpu-clock 4GHz --num-cpus 32 --mem-type HBM_2000_4H_1x64 --mem-channels 16 --mem-size 8GB --caches --cmd ./workload/stream_strcpy_MP_2.1M

info: Standard input is not a terminal, disabling listeners.
**** REAL SIMULATION ****
-------------------------------------------------------------
STREAM version $Revision: 5.10 $
-------------------------------------------------------------
This system uses 8 bytes per array element.
-------------------------------------------------------------
Array size = 1000000 (elements), Offset = 0 (elements)
Memory per array = 7.6 MiB (= 0.0 GiB).
Total memory required = 22.9 MiB (= 0.0 GiB).
Each kernel will be executed 4 times.
 The *best* time for each kernel (excluding the first iteration)
 will be used to compute the reported bandwidth.
-------------------------------------------------------------
Number of Threads requested = 32
Number of Threads counted = 32
-------------------------------------------------------------
Your clock granularity/precision appears to be 1 microseconds.
Each test below will take on the order of 357 microseconds.
   (= 357 clock ticks)
Increase the size of the arrays if this shows that
you are not getting at least 20 clock ticks per test.
-------------------------------------------------------------
WARNING -- The above is only a rough guideline.
For best results, please be sure you know the
precision of your system timer.
-------------------------------------------------------------
Function    Best Rate MB/s  Avg time     Min time     Max time
Copy:           44949.0     0.000363     0.000356     0.000367
Scale:          47611.8     0.000341     0.000336     0.000344
Add:            66117.1     0.000366     0.000363     0.000367
Triad:          64527.8     0.000386     0.000372     0.000411
-------------------------------------------------------------
Solution Validates: avg error less than 1.000000e-13 on all three arrays
-------------------------------------------------------------
Exiting @ tick 20453949500 because exiting with last active thread context
