
---------- Begin Simulation Statistics ----------
simSeconds                                   0.037716                       # Number of seconds simulated (Second)
simTicks                                  37716155091                       # Number of ticks simulated (Tick)
finalTick                                 37716155091                       # Number of ticks from beginning of simulation (restored from checkpoints and never reset) (Tick)
simFreq                                  1000000000000                       # The number of ticks per simulated second ((Tick/Second))
hostSeconds                                   1262.03                       # Real time elapsed on the host (Second)
hostTickRate                                 29885254                       # The number of ticks simulated per host second (ticks/s) ((Tick/Second))
hostMemory                                     886676                       # Number of bytes of host memory used (Byte)
simInsts                                    127278643                       # Number of instructions simulated (Count)
simOps                                      229707174                       # Number of ops (including micro ops) simulated (Count)
hostInstRate                                   100852                       # Simulator instruction rate (inst/s) ((Count/Second))
hostOpRate                                     182014                       # Simulator op (including micro ops) rate (op/s) ((Count/Second))
system.clk_domain.clock                          1000                       # Clock period in ticks (Tick)
system.cpu0.numCycles                       113261728                       # Number of cpu cycles simulated (Cycle)
system.cpu0.numWorkItemsStarted                     0                       # Number of work items this cpu started (Count)
system.cpu0.numWorkItemsCompleted                   0                       # Number of work items this cpu completed (Count)
system.cpu0.instsAdded                       57808948                       # Number of instructions added to the IQ (excludes non-spec) (Count)
system.cpu0.nonSpecInstsAdded                    1283                       # Number of non-speculative instructions added to the IQ (Count)
system.cpu0.instsIssued                      57787514                       # Number of instructions issued (Count)
system.cpu0.squashedInstsIssued                  2128                       # Number of squashed instructions issued (Count)
system.cpu0.squashedInstsExamined              558119                       # Number of squashed instructions iterated over during squash; mainly for profiling (Count)
system.cpu0.squashedOperandsExamined           657803                       # Number of squashed operands that are examined and possibly removed from graph (Count)
system.cpu0.squashedNonSpecRemoved                389                       # Number of squashed non-spec instructions that were removed (Count)
system.cpu0.numIssuedDist::samples          113009634                       # Number of insts issued each cycle (Count)
system.cpu0.numIssuedDist::mean              0.511350                       # Number of insts issued each cycle (Count)
system.cpu0.numIssuedDist::stdev             1.430037                       # Number of insts issued each cycle (Count)
system.cpu0.numIssuedDist::underflows               0      0.00%      0.00% # Number of insts issued each cycle (Count)
system.cpu0.numIssuedDist::0                 95627116     84.62%     84.62% # Number of insts issued each cycle (Count)
system.cpu0.numIssuedDist::1                  4170073      3.69%     88.31% # Number of insts issued each cycle (Count)
system.cpu0.numIssuedDist::2                  3676738      3.25%     91.56% # Number of insts issued each cycle (Count)
system.cpu0.numIssuedDist::3                  1143653      1.01%     92.57% # Number of insts issued each cycle (Count)
system.cpu0.numIssuedDist::4                  3778634      3.34%     95.92% # Number of insts issued each cycle (Count)
system.cpu0.numIssuedDist::5                  1799127      1.59%     97.51% # Number of insts issued each cycle (Count)
system.cpu0.numIssuedDist::6                  1403295      1.24%     98.75% # Number of insts issued each cycle (Count)
system.cpu0.numIssuedDist::7                   984919      0.87%     99.62% # Number of insts issued each cycle (Count)
system.cpu0.numIssuedDist::8                   426079      0.38%    100.00% # Number of insts issued each cycle (Count)
system.cpu0.numIssuedDist::overflows                0      0.00%    100.00% # Number of insts issued each cycle (Count)
system.cpu0.numIssuedDist::min_value                0                       # Number of insts issued each cycle (Count)
system.cpu0.numIssuedDist::max_value                8                       # Number of insts issued each cycle (Count)
system.cpu0.numIssuedDist::total            113009634                       # Number of insts issued each cycle (Count)
system.cpu0.statFuBusy::No_OpClass                  0      0.00%      0.00% # attempts to use FU when none available (Count)
system.cpu0.statFuBusy::IntAlu                  17132      2.40%      2.40% # attempts to use FU when none available (Count)
system.cpu0.statFuBusy::IntMult                     0      0.00%      2.40% # attempts to use FU when none available (Count)
system.cpu0.statFuBusy::IntDiv                      0      0.00%      2.40% # attempts to use FU when none available (Count)
system.cpu0.statFuBusy::FloatAdd                    0      0.00%      2.40% # attempts to use FU when none available (Count)
system.cpu0.statFuBusy::FloatCmp                    0      0.00%      2.40% # attempts to use FU when none available (Count)
system.cpu0.statFuBusy::FloatCvt                    4      0.00%      2.40% # attempts to use FU when none available (Count)
system.cpu0.statFuBusy::FloatMult                   0      0.00%      2.40% # attempts to use FU when none available (Count)
system.cpu0.statFuBusy::FloatMultAcc                0      0.00%      2.40% # attempts to use FU when none available (Count)
system.cpu0.statFuBusy::FloatDiv                    0      0.00%      2.40% # attempts to use FU when none available (Count)
system.cpu0.statFuBusy::FloatMisc                   0      0.00%      2.40% # attempts to use FU when none available (Count)
system.cpu0.statFuBusy::FloatSqrt                   0      0.00%      2.40% # attempts to use FU when none available (Count)
system.cpu0.statFuBusy::SimdAdd                     2      0.00%      2.40% # attempts to use FU when none available (Count)
system.cpu0.statFuBusy::SimdAddAcc                  0      0.00%      2.40% # attempts to use FU when none available (Count)
system.cpu0.statFuBusy::SimdAlu                   119      0.02%      2.42% # attempts to use FU when none available (Count)
system.cpu0.statFuBusy::SimdCmp                     0      0.00%      2.42% # attempts to use FU when none available (Count)
system.cpu0.statFuBusy::SimdCvt                   155      0.02%      2.44% # attempts to use FU when none available (Count)
system.cpu0.statFuBusy::SimdMisc                   55      0.01%      2.45% # attempts to use FU when none available (Count)
system.cpu0.statFuBusy::SimdMult                    0      0.00%      2.45% # attempts to use FU when none available (Count)
system.cpu0.statFuBusy::SimdMultAcc                 0      0.00%      2.45% # attempts to use FU when none available (Count)
system.cpu0.statFuBusy::SimdShift                  17      0.00%      2.45% # attempts to use FU when none available (Count)
system.cpu0.statFuBusy::SimdShiftAcc                0      0.00%      2.45% # attempts to use FU when none available (Count)
system.cpu0.statFuBusy::SimdDiv                     0      0.00%      2.45% # attempts to use FU when none available (Count)
system.cpu0.statFuBusy::SimdSqrt                    0      0.00%      2.45% # attempts to use FU when none available (Count)
system.cpu0.statFuBusy::SimdFloatAdd           669782     93.92%     96.37% # attempts to use FU when none available (Count)
system.cpu0.statFuBusy::SimdFloatAlu                0      0.00%     96.37% # attempts to use FU when none available (Count)
system.cpu0.statFuBusy::SimdFloatCmp                0      0.00%     96.37% # attempts to use FU when none available (Count)
system.cpu0.statFuBusy::SimdFloatCvt                0      0.00%     96.37% # attempts to use FU when none available (Count)
system.cpu0.statFuBusy::SimdFloatDiv                0      0.00%     96.37% # attempts to use FU when none available (Count)
system.cpu0.statFuBusy::SimdFloatMisc               0      0.00%     96.37% # attempts to use FU when none available (Count)
system.cpu0.statFuBusy::SimdFloatMult               0      0.00%     96.37% # attempts to use FU when none available (Count)
system.cpu0.statFuBusy::SimdFloatMultAcc            0      0.00%     96.37% # attempts to use FU when none available (Count)
system.cpu0.statFuBusy::SimdFloatSqrt               0      0.00%     96.37% # attempts to use FU when none available (Count)
system.cpu0.statFuBusy::SimdReduceAdd               0      0.00%     96.37% # attempts to use FU when none available (Count)
system.cpu0.statFuBusy::SimdReduceAlu               0      0.00%     96.37% # attempts to use FU when none available (Count)
system.cpu0.statFuBusy::SimdReduceCmp               0      0.00%     96.37% # attempts to use FU when none available (Count)
system.cpu0.statFuBusy::SimdFloatReduceAdd            0      0.00%     96.37% # attempts to use FU when none available (Count)
system.cpu0.statFuBusy::SimdFloatReduceCmp            0      0.00%     96.37% # attempts to use FU when none available (Count)
system.cpu0.statFuBusy::SimdAes                     0      0.00%     96.37% # attempts to use FU when none available (Count)
system.cpu0.statFuBusy::SimdAesMix                  0      0.00%     96.37% # attempts to use FU when none available (Count)
system.cpu0.statFuBusy::SimdSha1Hash                0      0.00%     96.37% # attempts to use FU when none available (Count)
system.cpu0.statFuBusy::SimdSha1Hash2               0      0.00%     96.37% # attempts to use FU when none available (Count)
system.cpu0.statFuBusy::SimdSha256Hash              0      0.00%     96.37% # attempts to use FU when none available (Count)
system.cpu0.statFuBusy::SimdSha256Hash2             0      0.00%     96.37% # attempts to use FU when none available (Count)
system.cpu0.statFuBusy::SimdShaSigma2               0      0.00%     96.37% # attempts to use FU when none available (Count)
system.cpu0.statFuBusy::SimdShaSigma3               0      0.00%     96.37% # attempts to use FU when none available (Count)
system.cpu0.statFuBusy::SimdPredAlu                 0      0.00%     96.37% # attempts to use FU when none available (Count)
system.cpu0.statFuBusy::MemRead                  1925      0.27%     96.64% # attempts to use FU when none available (Count)
system.cpu0.statFuBusy::MemWrite                 1041      0.15%     96.79% # attempts to use FU when none available (Count)
system.cpu0.statFuBusy::FloatMemRead            14502      2.03%     98.82% # attempts to use FU when none available (Count)
system.cpu0.statFuBusy::FloatMemWrite            8400      1.18%    100.00% # attempts to use FU when none available (Count)
system.cpu0.statFuBusy::IprAccess                   0      0.00%    100.00% # attempts to use FU when none available (Count)
system.cpu0.statFuBusy::InstPrefetch                0      0.00%    100.00% # attempts to use FU when none available (Count)
system.cpu0.statIssuedInstType_0::No_OpClass        21960      0.04%      0.04% # Number of instructions issued per FU type, per thread (Count)
system.cpu0.statIssuedInstType_0::IntAlu     33364936     57.74%     57.78% # Number of instructions issued per FU type, per thread (Count)
system.cpu0.statIssuedInstType_0::IntMult          299      0.00%     57.78% # Number of instructions issued per FU type, per thread (Count)
system.cpu0.statIssuedInstType_0::IntDiv         2975      0.01%     57.78% # Number of instructions issued per FU type, per thread (Count)
system.cpu0.statIssuedInstType_0::FloatAdd      3881535      6.72%     64.50% # Number of instructions issued per FU type, per thread (Count)
system.cpu0.statIssuedInstType_0::FloatCmp            0      0.00%     64.50% # Number of instructions issued per FU type, per thread (Count)
system.cpu0.statIssuedInstType_0::FloatCvt          472      0.00%     64.50% # Number of instructions issued per FU type, per thread (Count)
system.cpu0.statIssuedInstType_0::FloatMult            0      0.00%     64.50% # Number of instructions issued per FU type, per thread (Count)
system.cpu0.statIssuedInstType_0::FloatMultAcc            0      0.00%     64.50% # Number of instructions issued per FU type, per thread (Count)
system.cpu0.statIssuedInstType_0::FloatDiv            0      0.00%     64.50% # Number of instructions issued per FU type, per thread (Count)
system.cpu0.statIssuedInstType_0::FloatMisc            0      0.00%     64.50% # Number of instructions issued per FU type, per thread (Count)
system.cpu0.statIssuedInstType_0::FloatSqrt            0      0.00%     64.50% # Number of instructions issued per FU type, per thread (Count)
system.cpu0.statIssuedInstType_0::SimdAdd         1650      0.00%     64.50% # Number of instructions issued per FU type, per thread (Count)
system.cpu0.statIssuedInstType_0::SimdAddAcc            0      0.00%     64.50% # Number of instructions issued per FU type, per thread (Count)
system.cpu0.statIssuedInstType_0::SimdAlu        23589      0.04%     64.54% # Number of instructions issued per FU type, per thread (Count)
system.cpu0.statIssuedInstType_0::SimdCmp           78      0.00%     64.54% # Number of instructions issued per FU type, per thread (Count)
system.cpu0.statIssuedInstType_0::SimdCvt         4850      0.01%     64.55% # Number of instructions issued per FU type, per thread (Count)
system.cpu0.statIssuedInstType_0::SimdMisc         3854      0.01%     64.56% # Number of instructions issued per FU type, per thread (Count)
system.cpu0.statIssuedInstType_0::SimdMult            0      0.00%     64.56% # Number of instructions issued per FU type, per thread (Count)
system.cpu0.statIssuedInstType_0::SimdMultAcc            0      0.00%     64.56% # Number of instructions issued per FU type, per thread (Count)
system.cpu0.statIssuedInstType_0::SimdShift         1361      0.00%     64.56% # Number of instructions issued per FU type, per thread (Count)
system.cpu0.statIssuedInstType_0::SimdShiftAcc            0      0.00%     64.56% # Number of instructions issued per FU type, per thread (Count)
system.cpu0.statIssuedInstType_0::SimdDiv            0      0.00%     64.56% # Number of instructions issued per FU type, per thread (Count)
system.cpu0.statIssuedInstType_0::SimdSqrt            0      0.00%     64.56% # Number of instructions issued per FU type, per thread (Count)
system.cpu0.statIssuedInstType_0::SimdFloatAdd      6881394     11.91%     76.47% # Number of instructions issued per FU type, per thread (Count)
system.cpu0.statIssuedInstType_0::SimdFloatAlu            0      0.00%     76.47% # Number of instructions issued per FU type, per thread (Count)
system.cpu0.statIssuedInstType_0::SimdFloatCmp           16      0.00%     76.47% # Number of instructions issued per FU type, per thread (Count)
system.cpu0.statIssuedInstType_0::SimdFloatCvt      3012739      5.21%     81.68% # Number of instructions issued per FU type, per thread (Count)
system.cpu0.statIssuedInstType_0::SimdFloatDiv           11      0.00%     81.68% # Number of instructions issued per FU type, per thread (Count)
system.cpu0.statIssuedInstType_0::SimdFloatMisc            0      0.00%     81.68% # Number of instructions issued per FU type, per thread (Count)
system.cpu0.statIssuedInstType_0::SimdFloatMult       754786      1.31%     82.99% # Number of instructions issued per FU type, per thread (Count)
system.cpu0.statIssuedInstType_0::SimdFloatMultAcc            0      0.00%     82.99% # Number of instructions issued per FU type, per thread (Count)
system.cpu0.statIssuedInstType_0::SimdFloatSqrt            0      0.00%     82.99% # Number of instructions issued per FU type, per thread (Count)
system.cpu0.statIssuedInstType_0::SimdReduceAdd            0      0.00%     82.99% # Number of instructions issued per FU type, per thread (Count)
system.cpu0.statIssuedInstType_0::SimdReduceAlu            0      0.00%     82.99% # Number of instructions issued per FU type, per thread (Count)
system.cpu0.statIssuedInstType_0::SimdReduceCmp            0      0.00%     82.99% # Number of instructions issued per FU type, per thread (Count)
system.cpu0.statIssuedInstType_0::SimdFloatReduceAdd            0      0.00%     82.99% # Number of instructions issued per FU type, per thread (Count)
system.cpu0.statIssuedInstType_0::SimdFloatReduceCmp            0      0.00%     82.99% # Number of instructions issued per FU type, per thread (Count)
system.cpu0.statIssuedInstType_0::SimdAes            0      0.00%     82.99% # Number of instructions issued per FU type, per thread (Count)
system.cpu0.statIssuedInstType_0::SimdAesMix            0      0.00%     82.99% # Number of instructions issued per FU type, per thread (Count)
system.cpu0.statIssuedInstType_0::SimdSha1Hash            0      0.00%     82.99% # Number of instructions issued per FU type, per thread (Count)
system.cpu0.statIssuedInstType_0::SimdSha1Hash2            0      0.00%     82.99% # Number of instructions issued per FU type, per thread (Count)
system.cpu0.statIssuedInstType_0::SimdSha256Hash            0      0.00%     82.99% # Number of instructions issued per FU type, per thread (Count)
system.cpu0.statIssuedInstType_0::SimdSha256Hash2            0      0.00%     82.99% # Number of instructions issued per FU type, per thread (Count)
system.cpu0.statIssuedInstType_0::SimdShaSigma2            0      0.00%     82.99% # Number of instructions issued per FU type, per thread (Count)
system.cpu0.statIssuedInstType_0::SimdShaSigma3            0      0.00%     82.99% # Number of instructions issued per FU type, per thread (Count)
system.cpu0.statIssuedInstType_0::SimdPredAlu            0      0.00%     82.99% # Number of instructions issued per FU type, per thread (Count)
system.cpu0.statIssuedInstType_0::MemRead       267990      0.46%     83.45% # Number of instructions issued per FU type, per thread (Count)
system.cpu0.statIssuedInstType_0::MemWrite       185269      0.32%     83.77% # Number of instructions issued per FU type, per thread (Count)
system.cpu0.statIssuedInstType_0::FloatMemRead      7497062     12.97%     96.75% # Number of instructions issued per FU type, per thread (Count)
system.cpu0.statIssuedInstType_0::FloatMemWrite      1880688      3.25%    100.00% # Number of instructions issued per FU type, per thread (Count)
system.cpu0.statIssuedInstType_0::IprAccess            0      0.00%    100.00% # Number of instructions issued per FU type, per thread (Count)
system.cpu0.statIssuedInstType_0::InstPrefetch            0      0.00%    100.00% # Number of instructions issued per FU type, per thread (Count)
system.cpu0.statIssuedInstType_0::total      57787514                       # Number of instructions issued per FU type, per thread (Count)
system.cpu0.issueRate                        0.510212                       # Inst issue rate ((Count/Cycle))
system.cpu0.fuBusy                             713134                       # FU busy when requested (Count)
system.cpu0.fuBusyRate                       0.012341                       # FU busy rate (busy events/executed inst) ((Count/Count))
system.cpu0.intInstQueueReads               177700751                       # Number of integer instruction queue reads (Count)
system.cpu0.intInstQueueWrites               32916352                       # Number of integer instruction queue writes (Count)
system.cpu0.intInstQueueWakeupAccesses       32296973                       # Number of integer instruction queue wakeup accesses (Count)
system.cpu0.fpInstQueueReads                 51599173                       # Number of floating instruction queue reads (Count)
system.cpu0.fpInstQueueWrites                25452249                       # Number of floating instruction queue writes (Count)
system.cpu0.fpInstQueueWakeupAccesses        25353680                       # Number of floating instruction queue wakeup accesses (Count)
system.cpu0.vecInstQueueReads                       0                       # Number of vector instruction queue reads (Count)
system.cpu0.vecInstQueueWrites                      0                       # Number of vector instruction queue writes (Count)
system.cpu0.vecInstQueueWakeupAccesses              0                       # Number of vector instruction queue wakeup accesses (Count)
system.cpu0.intAluAccesses                   32332703                       # Number of integer alu accesses (Count)
system.cpu0.fpAluAccesses                    26145985                       # Number of floating point alu accesses (Count)
system.cpu0.vecAluAccesses                          0                       # Number of vector alu accesses (Count)
system.cpu0.numInsts                         57759842                       # Number of executed instructions (Count)
system.cpu0.numLoadInsts                      7759123                       # Number of load instructions executed (Count)
system.cpu0.numSquashedInsts                    27672                       # Number of squashed instructions skipped in execute (Count)
system.cpu0.numSwp                                  0                       # Number of swp insts executed (Count)
system.cpu0.numNop                                  0                       # Number of nop insts executed (Count)
system.cpu0.numRefs                           9824061                       # Number of memory reference insts executed (Count)
system.cpu0.numBranches                       6122084                       # Number of branches executed (Count)
system.cpu0.numStoreInsts                     2064938                       # Number of stores executed (Count)
system.cpu0.numRate                          0.509968                       # Inst execution rate ((Count/Cycle))
system.cpu0.timesIdled                           1733                       # Number of times that the entire CPU went into an idle state and unscheduled itself (Count)
system.cpu0.idleCycles                         252094                       # Total number of cycles that the CPU has spent unscheduled due to idling (Cycle)
system.cpu0.committedInsts                   30767593                       # Number of Instructions Simulated (Count)
system.cpu0.committedOps                     57252106                       # Number of Ops (including micro ops) Simulated (Count)
system.cpu0.cpi                              3.681202                       # CPI: Cycles Per Instruction ((Cycle/Count))
system.cpu0.totalCpi                         3.681202                       # CPI: Total CPI of All Threads ((Cycle/Count))
system.cpu0.ipc                              0.271650                       # IPC: Instructions Per Cycle ((Count/Cycle))
system.cpu0.totalIpc                         0.271650                       # IPC: Total IPC of All Threads ((Count/Cycle))
system.cpu0.intRegfileReads                  44989860                       # Number of integer regfile reads (Count)
system.cpu0.intRegfileWrites                 22790716                       # Number of integer regfile writes (Count)
system.cpu0.fpRegfileReads                   33900437                       # Number of floating regfile reads (Count)
system.cpu0.fpRegfileWrites                  20467486                       # Number of floating regfile writes (Count)
system.cpu0.ccRegfileReads                   36533390                       # number of cc regfile reads (Count)
system.cpu0.ccRegfileWrites                  18086146                       # number of cc regfile writes (Count)
system.cpu0.miscRegfileReads                 24085988                       # number of misc regfile reads (Count)
system.cpu0.miscRegfileWrites                     234                       # number of misc regfile writes (Count)
system.cpu0.MemDepUnit__0.insertedLoads       7682820                       # Number of loads inserted to the mem dependence unit. (Count)
system.cpu0.MemDepUnit__0.insertedStores      2070816                       # Number of stores inserted to the mem dependence unit. (Count)
system.cpu0.MemDepUnit__0.conflictingLoads       130012                       # Number of conflicting loads. (Count)
system.cpu0.MemDepUnit__0.conflictingStores       128240                       # Number of conflicting stores. (Count)
system.cpu0.MemDepUnit__1.insertedLoads             0                       # Number of loads inserted to the mem dependence unit. (Count)
system.cpu0.MemDepUnit__1.insertedStores            0                       # Number of stores inserted to the mem dependence unit. (Count)
system.cpu0.MemDepUnit__1.conflictingLoads            0                       # Number of conflicting loads. (Count)
system.cpu0.MemDepUnit__1.conflictingStores            0                       # Number of conflicting stores. (Count)
system.cpu0.MemDepUnit__2.insertedLoads             0                       # Number of loads inserted to the mem dependence unit. (Count)
system.cpu0.MemDepUnit__2.insertedStores            0                       # Number of stores inserted to the mem dependence unit. (Count)
system.cpu0.MemDepUnit__2.conflictingLoads            0                       # Number of conflicting loads. (Count)
system.cpu0.MemDepUnit__2.conflictingStores            0                       # Number of conflicting stores. (Count)
system.cpu0.MemDepUnit__3.insertedLoads             0                       # Number of loads inserted to the mem dependence unit. (Count)
system.cpu0.MemDepUnit__3.insertedStores            0                       # Number of stores inserted to the mem dependence unit. (Count)
system.cpu0.MemDepUnit__3.conflictingLoads            0                       # Number of conflicting loads. (Count)
system.cpu0.MemDepUnit__3.conflictingStores            0                       # Number of conflicting stores. (Count)
system.cpu0.branchPred.lookups                6171404                       # Number of BP lookups (Count)
system.cpu0.branchPred.condPredicted          6118148                       # Number of conditional branches predicted (Count)
system.cpu0.branchPred.condIncorrect             8883                       # Number of conditional branches incorrect (Count)
system.cpu0.branchPred.BTBLookups             2942072                       # Number of BTB lookups (Count)
system.cpu0.branchPred.BTBHits                2938318                       # Number of BTB hits (Count)
system.cpu0.branchPred.BTBHitRatio           0.998724                       # BTB Hit Ratio (Ratio)
system.cpu0.branchPred.RASUsed                  15038                       # Number of times the RAS was used to get a target. (Count)
system.cpu0.branchPred.RASIncorrect                 9                       # Number of incorrect RAS predictions. (Count)
system.cpu0.branchPred.indirectLookups           8819                       # Number of indirect predictor lookups. (Count)
system.cpu0.branchPred.indirectHits              4366                       # Number of indirect target hits. (Count)
system.cpu0.branchPred.indirectMisses            4453                       # Number of indirect misses. (Count)
system.cpu0.branchPred.indirectMispredicted          859                       # Number of mispredicted indirect branches. (Count)
system.cpu0.commit.commitSquashedInsts         459863                       # The number of squashed insts skipped by commit (Count)
system.cpu0.commit.commitNonSpecStalls            894                       # The number of times commit has been forced to stall to communicate backwards (Count)
system.cpu0.commit.branchMispredicts             8254                       # The number of times a branch was mispredicted (Count)
system.cpu0.commit.numCommittedDist::samples    112943391                       # Number of insts commited each cycle (Count)
system.cpu0.commit.numCommittedDist::mean     0.506910                       # Number of insts commited each cycle (Count)
system.cpu0.commit.numCommittedDist::stdev     1.833399                       # Number of insts commited each cycle (Count)
system.cpu0.commit.numCommittedDist::underflows            0      0.00%      0.00% # Number of insts commited each cycle (Count)
system.cpu0.commit.numCommittedDist::0      102676518     90.91%     90.91% # Number of insts commited each cycle (Count)
system.cpu0.commit.numCommittedDist::1        1901444      1.68%     92.59% # Number of insts commited each cycle (Count)
system.cpu0.commit.numCommittedDist::2         378143      0.33%     92.93% # Number of insts commited each cycle (Count)
system.cpu0.commit.numCommittedDist::3        1412377      1.25%     94.18% # Number of insts commited each cycle (Count)
system.cpu0.commit.numCommittedDist::4         374407      0.33%     94.51% # Number of insts commited each cycle (Count)
system.cpu0.commit.numCommittedDist::5         128422      0.11%     94.62% # Number of insts commited each cycle (Count)
system.cpu0.commit.numCommittedDist::6          55830      0.05%     94.67% # Number of insts commited each cycle (Count)
system.cpu0.commit.numCommittedDist::7         247473      0.22%     94.89% # Number of insts commited each cycle (Count)
system.cpu0.commit.numCommittedDist::8        5768777      5.11%    100.00% # Number of insts commited each cycle (Count)
system.cpu0.commit.numCommittedDist::overflows            0      0.00%    100.00% # Number of insts commited each cycle (Count)
system.cpu0.commit.numCommittedDist::min_value            0                       # Number of insts commited each cycle (Count)
system.cpu0.commit.numCommittedDist::max_value            8                       # Number of insts commited each cycle (Count)
system.cpu0.commit.numCommittedDist::total    112943391                       # Number of insts commited each cycle (Count)
system.cpu0.commit.instsCommitted            30767593                       # Number of instructions committed (Count)
system.cpu0.commit.opsCommitted              57252106                       # Number of ops (including micro ops) committed (Count)
system.cpu0.commit.memRefs                    9651405                       # Number of memory references committed (Count)
system.cpu0.commit.loads                      7602595                       # Number of loads committed (Count)
system.cpu0.commit.amos                             0                       # Number of atomic instructions committed (Count)
system.cpu0.commit.membars                        440                       # Number of memory barriers committed (Count)
system.cpu0.commit.branches                   6083700                       # Number of branches committed (Count)
system.cpu0.commit.vectorInstructions               0                       # Number of committed Vector instructions. (Count)
system.cpu0.commit.floating                  25302271                       # Number of committed floating point instructions. (Count)
system.cpu0.commit.integer                   41089300                       # Number of committed integer instructions. (Count)
system.cpu0.commit.functionCalls                 6549                       # Number of function calls committed. (Count)
system.cpu0.commit.committedInstType_0::No_OpClass         9968      0.02%      0.02% # Class of committed instruction (Count)
system.cpu0.commit.committedInstType_0::IntAlu     33057874     57.74%     57.76% # Class of committed instruction (Count)
system.cpu0.commit.committedInstType_0::IntMult          274      0.00%     57.76% # Class of committed instruction (Count)
system.cpu0.commit.committedInstType_0::IntDiv         2684      0.00%     57.76% # Class of committed instruction (Count)
system.cpu0.commit.committedInstType_0::FloatAdd      3877577      6.77%     64.54% # Class of committed instruction (Count)
system.cpu0.commit.committedInstType_0::FloatCmp            0      0.00%     64.54% # Class of committed instruction (Count)
system.cpu0.commit.committedInstType_0::FloatCvt          416      0.00%     64.54% # Class of committed instruction (Count)
system.cpu0.commit.committedInstType_0::FloatMult            0      0.00%     64.54% # Class of committed instruction (Count)
system.cpu0.commit.committedInstType_0::FloatMultAcc            0      0.00%     64.54% # Class of committed instruction (Count)
system.cpu0.commit.committedInstType_0::FloatDiv            0      0.00%     64.54% # Class of committed instruction (Count)
system.cpu0.commit.committedInstType_0::FloatMisc            0      0.00%     64.54% # Class of committed instruction (Count)
system.cpu0.commit.committedInstType_0::FloatSqrt            0      0.00%     64.54% # Class of committed instruction (Count)
system.cpu0.commit.committedInstType_0::SimdAdd         1098      0.00%     64.54% # Class of committed instruction (Count)
system.cpu0.commit.committedInstType_0::SimdAddAcc            0      0.00%     64.54% # Class of committed instruction (Count)
system.cpu0.commit.committedInstType_0::SimdAlu         9234      0.02%     64.56% # Class of committed instruction (Count)
system.cpu0.commit.committedInstType_0::SimdCmp           72      0.00%     64.56% # Class of committed instruction (Count)
system.cpu0.commit.committedInstType_0::SimdCvt         3114      0.01%     64.56% # Class of committed instruction (Count)
system.cpu0.commit.committedInstType_0::SimdMisc         3150      0.01%     64.57% # Class of committed instruction (Count)
system.cpu0.commit.committedInstType_0::SimdMult            0      0.00%     64.57% # Class of committed instruction (Count)
system.cpu0.commit.committedInstType_0::SimdMultAcc            0      0.00%     64.57% # Class of committed instruction (Count)
system.cpu0.commit.committedInstType_0::SimdShift          531      0.00%     64.57% # Class of committed instruction (Count)
system.cpu0.commit.committedInstType_0::SimdShiftAcc            0      0.00%     64.57% # Class of committed instruction (Count)
system.cpu0.commit.committedInstType_0::SimdDiv            0      0.00%     64.57% # Class of committed instruction (Count)
system.cpu0.commit.committedInstType_0::SimdSqrt            0      0.00%     64.57% # Class of committed instruction (Count)
system.cpu0.commit.committedInstType_0::SimdFloatAdd      6878206     12.01%     76.58% # Class of committed instruction (Count)
system.cpu0.commit.committedInstType_0::SimdFloatAlu            0      0.00%     76.58% # Class of committed instruction (Count)
system.cpu0.commit.committedInstType_0::SimdFloatCmp           16      0.00%     76.58% # Class of committed instruction (Count)
system.cpu0.commit.committedInstType_0::SimdFloatCvt      3004842      5.25%     81.83% # Class of committed instruction (Count)
system.cpu0.commit.committedInstType_0::SimdFloatDiv           11      0.00%     81.83% # Class of committed instruction (Count)
system.cpu0.commit.committedInstType_0::SimdFloatMisc            0      0.00%     81.83% # Class of committed instruction (Count)
system.cpu0.commit.committedInstType_0::SimdFloatMult       751634      1.31%     83.14% # Class of committed instruction (Count)
system.cpu0.commit.committedInstType_0::SimdFloatMultAcc            0      0.00%     83.14% # Class of committed instruction (Count)
system.cpu0.commit.committedInstType_0::SimdFloatSqrt            0      0.00%     83.14% # Class of committed instruction (Count)
system.cpu0.commit.committedInstType_0::SimdReduceAdd            0      0.00%     83.14% # Class of committed instruction (Count)
system.cpu0.commit.committedInstType_0::SimdReduceAlu            0      0.00%     83.14% # Class of committed instruction (Count)
system.cpu0.commit.committedInstType_0::SimdReduceCmp            0      0.00%     83.14% # Class of committed instruction (Count)
system.cpu0.commit.committedInstType_0::SimdFloatReduceAdd            0      0.00%     83.14% # Class of committed instruction (Count)
system.cpu0.commit.committedInstType_0::SimdFloatReduceCmp            0      0.00%     83.14% # Class of committed instruction (Count)
system.cpu0.commit.committedInstType_0::SimdAes            0      0.00%     83.14% # Class of committed instruction (Count)
system.cpu0.commit.committedInstType_0::SimdAesMix            0      0.00%     83.14% # Class of committed instruction (Count)
system.cpu0.commit.committedInstType_0::SimdSha1Hash            0      0.00%     83.14% # Class of committed instruction (Count)
system.cpu0.commit.committedInstType_0::SimdSha1Hash2            0      0.00%     83.14% # Class of committed instruction (Count)
system.cpu0.commit.committedInstType_0::SimdSha256Hash            0      0.00%     83.14% # Class of committed instruction (Count)
system.cpu0.commit.committedInstType_0::SimdSha256Hash2            0      0.00%     83.14% # Class of committed instruction (Count)
system.cpu0.commit.committedInstType_0::SimdShaSigma2            0      0.00%     83.14% # Class of committed instruction (Count)
system.cpu0.commit.committedInstType_0::SimdShaSigma3            0      0.00%     83.14% # Class of committed instruction (Count)
system.cpu0.commit.committedInstType_0::SimdPredAlu            0      0.00%     83.14% # Class of committed instruction (Count)
system.cpu0.commit.committedInstType_0::MemRead       214134      0.37%     83.52% # Class of committed instruction (Count)
system.cpu0.commit.committedInstType_0::MemWrite       168833      0.29%     83.81% # Class of committed instruction (Count)
system.cpu0.commit.committedInstType_0::FloatMemRead      7388461     12.91%     96.72% # Class of committed instruction (Count)
system.cpu0.commit.committedInstType_0::FloatMemWrite      1879977      3.28%    100.00% # Class of committed instruction (Count)
system.cpu0.commit.committedInstType_0::IprAccess            0      0.00%    100.00% # Class of committed instruction (Count)
system.cpu0.commit.committedInstType_0::InstPrefetch            0      0.00%    100.00% # Class of committed instruction (Count)
system.cpu0.commit.committedInstType_0::total     57252106                       # Class of committed instruction (Count)
system.cpu0.commit.commitEligibleSamples      5768777                       # number cycles where commit BW limit reached (Cycle)
system.cpu0.dcache.demandHits::cpu0.data      5416121                       # number of demand (read+write) hits (Count)
system.cpu0.dcache.demandHits::total          5416121                       # number of demand (read+write) hits (Count)
system.cpu0.dcache.overallHits::cpu0.data      5416121                       # number of overall hits (Count)
system.cpu0.dcache.overallHits::total         5416121                       # number of overall hits (Count)
system.cpu0.dcache.demandMisses::cpu0.data      4281822                       # number of demand (read+write) misses (Count)
system.cpu0.dcache.demandMisses::total        4281822                       # number of demand (read+write) misses (Count)
system.cpu0.dcache.overallMisses::cpu0.data      4281822                       # number of overall misses (Count)
system.cpu0.dcache.overallMisses::total       4281822                       # number of overall misses (Count)
system.cpu0.dcache.demandMissLatency::cpu0.data 215851335247                       # number of demand (read+write) miss ticks (Tick)
system.cpu0.dcache.demandMissLatency::total 215851335247                       # number of demand (read+write) miss ticks (Tick)
system.cpu0.dcache.overallMissLatency::cpu0.data 215851335247                       # number of overall miss ticks (Tick)
system.cpu0.dcache.overallMissLatency::total 215851335247                       # number of overall miss ticks (Tick)
system.cpu0.dcache.demandAccesses::cpu0.data      9697943                       # number of demand (read+write) accesses (Count)
system.cpu0.dcache.demandAccesses::total      9697943                       # number of demand (read+write) accesses (Count)
system.cpu0.dcache.overallAccesses::cpu0.data      9697943                       # number of overall (read+write) accesses (Count)
system.cpu0.dcache.overallAccesses::total      9697943                       # number of overall (read+write) accesses (Count)
system.cpu0.dcache.demandMissRate::cpu0.data     0.441519                       # miss rate for demand accesses (Ratio)
system.cpu0.dcache.demandMissRate::total     0.441519                       # miss rate for demand accesses (Ratio)
system.cpu0.dcache.overallMissRate::cpu0.data     0.441519                       # miss rate for overall accesses (Ratio)
system.cpu0.dcache.overallMissRate::total     0.441519                       # miss rate for overall accesses (Ratio)
system.cpu0.dcache.demandAvgMissLatency::cpu0.data 50411.094914                       # average overall miss latency in ticks ((Tick/Count))
system.cpu0.dcache.demandAvgMissLatency::total 50411.094914                       # average overall miss latency in ticks ((Tick/Count))
system.cpu0.dcache.overallAvgMissLatency::cpu0.data 50411.094914                       # average overall miss latency ((Tick/Count))
system.cpu0.dcache.overallAvgMissLatency::total 50411.094914                       # average overall miss latency ((Tick/Count))
system.cpu0.dcache.blockedCycles::no_mshrs      9149123                       # number of cycles access was blocked (Cycle)
system.cpu0.dcache.blockedCycles::no_targets          184                       # number of cycles access was blocked (Cycle)
system.cpu0.dcache.blockedCauses::no_mshrs       178477                       # number of times access was blocked (Count)
system.cpu0.dcache.blockedCauses::no_targets            4                       # number of times access was blocked (Count)
system.cpu0.dcache.avgBlocked::no_mshrs     51.262196                       # average number of cycles each access was blocked ((Cycle/Count))
system.cpu0.dcache.avgBlocked::no_targets           46                       # average number of cycles each access was blocked ((Cycle/Count))
system.cpu0.dcache.writebacks::writebacks       252322                       # number of writebacks (Count)
system.cpu0.dcache.writebacks::total           252322                       # number of writebacks (Count)
system.cpu0.dcache.demandMshrHits::cpu0.data      3369614                       # number of demand (read+write) MSHR hits (Count)
system.cpu0.dcache.demandMshrHits::total      3369614                       # number of demand (read+write) MSHR hits (Count)
system.cpu0.dcache.overallMshrHits::cpu0.data      3369614                       # number of overall MSHR hits (Count)
system.cpu0.dcache.overallMshrHits::total      3369614                       # number of overall MSHR hits (Count)
system.cpu0.dcache.demandMshrMisses::cpu0.data       912208                       # number of demand (read+write) MSHR misses (Count)
system.cpu0.dcache.demandMshrMisses::total       912208                       # number of demand (read+write) MSHR misses (Count)
system.cpu0.dcache.overallMshrMisses::cpu0.data       912208                       # number of overall MSHR misses (Count)
system.cpu0.dcache.overallMshrMisses::total       912208                       # number of overall MSHR misses (Count)
system.cpu0.dcache.demandMshrMissLatency::cpu0.data  87998682216                       # number of demand (read+write) MSHR miss ticks (Tick)
system.cpu0.dcache.demandMshrMissLatency::total  87998682216                       # number of demand (read+write) MSHR miss ticks (Tick)
system.cpu0.dcache.overallMshrMissLatency::cpu0.data  87998682216                       # number of overall MSHR miss ticks (Tick)
system.cpu0.dcache.overallMshrMissLatency::total  87998682216                       # number of overall MSHR miss ticks (Tick)
system.cpu0.dcache.demandMshrMissRate::cpu0.data     0.094062                       # mshr miss ratio for demand accesses (Ratio)
system.cpu0.dcache.demandMshrMissRate::total     0.094062                       # mshr miss ratio for demand accesses (Ratio)
system.cpu0.dcache.overallMshrMissRate::cpu0.data     0.094062                       # mshr miss ratio for overall accesses (Ratio)
system.cpu0.dcache.overallMshrMissRate::total     0.094062                       # mshr miss ratio for overall accesses (Ratio)
system.cpu0.dcache.demandAvgMshrMissLatency::cpu0.data 96467.781708                       # average overall mshr miss latency ((Tick/Count))
system.cpu0.dcache.demandAvgMshrMissLatency::total 96467.781708                       # average overall mshr miss latency ((Tick/Count))
system.cpu0.dcache.overallAvgMshrMissLatency::cpu0.data 96467.781708                       # average overall mshr miss latency ((Tick/Count))
system.cpu0.dcache.overallAvgMshrMissLatency::total 96467.781708                       # average overall mshr miss latency ((Tick/Count))
system.cpu0.dcache.replacements                910952                       # number of replacements (Count)
system.cpu0.dcache.LockedRMWReadReq.hits::cpu0.data          186                       # number of LockedRMWReadReq hits (Count)
system.cpu0.dcache.LockedRMWReadReq.hits::total          186                       # number of LockedRMWReadReq hits (Count)
system.cpu0.dcache.LockedRMWReadReq.misses::cpu0.data           34                       # number of LockedRMWReadReq misses (Count)
system.cpu0.dcache.LockedRMWReadReq.misses::total           34                       # number of LockedRMWReadReq misses (Count)
system.cpu0.dcache.LockedRMWReadReq.missLatency::cpu0.data       584748                       # number of LockedRMWReadReq miss ticks (Tick)
system.cpu0.dcache.LockedRMWReadReq.missLatency::total       584748                       # number of LockedRMWReadReq miss ticks (Tick)
system.cpu0.dcache.LockedRMWReadReq.accesses::cpu0.data          220                       # number of LockedRMWReadReq accesses(hits+misses) (Count)
system.cpu0.dcache.LockedRMWReadReq.accesses::total          220                       # number of LockedRMWReadReq accesses(hits+misses) (Count)
system.cpu0.dcache.LockedRMWReadReq.missRate::cpu0.data     0.154545                       # miss rate for LockedRMWReadReq accesses (Ratio)
system.cpu0.dcache.LockedRMWReadReq.missRate::total     0.154545                       # miss rate for LockedRMWReadReq accesses (Ratio)
system.cpu0.dcache.LockedRMWReadReq.avgMissLatency::cpu0.data 17198.470588                       # average LockedRMWReadReq miss latency ((Tick/Count))
system.cpu0.dcache.LockedRMWReadReq.avgMissLatency::total 17198.470588                       # average LockedRMWReadReq miss latency ((Tick/Count))
system.cpu0.dcache.LockedRMWReadReq.mshrMisses::cpu0.data           34                       # number of LockedRMWReadReq MSHR misses (Count)
system.cpu0.dcache.LockedRMWReadReq.mshrMisses::total           34                       # number of LockedRMWReadReq MSHR misses (Count)
system.cpu0.dcache.LockedRMWReadReq.mshrMissLatency::cpu0.data      1796869                       # number of LockedRMWReadReq MSHR miss ticks (Tick)
system.cpu0.dcache.LockedRMWReadReq.mshrMissLatency::total      1796869                       # number of LockedRMWReadReq MSHR miss ticks (Tick)
system.cpu0.dcache.LockedRMWReadReq.mshrMissRate::cpu0.data     0.154545                       # mshr miss rate for LockedRMWReadReq accesses (Ratio)
system.cpu0.dcache.LockedRMWReadReq.mshrMissRate::total     0.154545                       # mshr miss rate for LockedRMWReadReq accesses (Ratio)
system.cpu0.dcache.LockedRMWReadReq.avgMshrMissLatency::cpu0.data 52849.088235                       # average LockedRMWReadReq mshr miss latency ((Tick/Count))
system.cpu0.dcache.LockedRMWReadReq.avgMshrMissLatency::total 52849.088235                       # average LockedRMWReadReq mshr miss latency ((Tick/Count))
system.cpu0.dcache.LockedRMWWriteReq.hits::cpu0.data          220                       # number of LockedRMWWriteReq hits (Count)
system.cpu0.dcache.LockedRMWWriteReq.hits::total          220                       # number of LockedRMWWriteReq hits (Count)
system.cpu0.dcache.LockedRMWWriteReq.accesses::cpu0.data          220                       # number of LockedRMWWriteReq accesses(hits+misses) (Count)
system.cpu0.dcache.LockedRMWWriteReq.accesses::total          220                       # number of LockedRMWWriteReq accesses(hits+misses) (Count)
system.cpu0.dcache.ReadReq.hits::cpu0.data      3603707                       # number of ReadReq hits (Count)
system.cpu0.dcache.ReadReq.hits::total        3603707                       # number of ReadReq hits (Count)
system.cpu0.dcache.ReadReq.misses::cpu0.data      4045629                       # number of ReadReq misses (Count)
system.cpu0.dcache.ReadReq.misses::total      4045629                       # number of ReadReq misses (Count)
system.cpu0.dcache.ReadReq.missLatency::cpu0.data 191777754942                       # number of ReadReq miss ticks (Tick)
system.cpu0.dcache.ReadReq.missLatency::total 191777754942                       # number of ReadReq miss ticks (Tick)
system.cpu0.dcache.ReadReq.accesses::cpu0.data      7649336                       # number of ReadReq accesses(hits+misses) (Count)
system.cpu0.dcache.ReadReq.accesses::total      7649336                       # number of ReadReq accesses(hits+misses) (Count)
system.cpu0.dcache.ReadReq.missRate::cpu0.data     0.528886                       # miss rate for ReadReq accesses (Ratio)
system.cpu0.dcache.ReadReq.missRate::total     0.528886                       # miss rate for ReadReq accesses (Ratio)
system.cpu0.dcache.ReadReq.avgMissLatency::cpu0.data 47403.692959                       # average ReadReq miss latency ((Tick/Count))
system.cpu0.dcache.ReadReq.avgMissLatency::total 47403.692959                       # average ReadReq miss latency ((Tick/Count))
system.cpu0.dcache.ReadReq.mshrHits::cpu0.data      3369596                       # number of ReadReq MSHR hits (Count)
system.cpu0.dcache.ReadReq.mshrHits::total      3369596                       # number of ReadReq MSHR hits (Count)
system.cpu0.dcache.ReadReq.mshrMisses::cpu0.data       676033                       # number of ReadReq MSHR misses (Count)
system.cpu0.dcache.ReadReq.mshrMisses::total       676033                       # number of ReadReq MSHR misses (Count)
system.cpu0.dcache.ReadReq.mshrMissLatency::cpu0.data  64083308877                       # number of ReadReq MSHR miss ticks (Tick)
system.cpu0.dcache.ReadReq.mshrMissLatency::total  64083308877                       # number of ReadReq MSHR miss ticks (Tick)
system.cpu0.dcache.ReadReq.mshrMissRate::cpu0.data     0.088378                       # mshr miss rate for ReadReq accesses (Ratio)
system.cpu0.dcache.ReadReq.mshrMissRate::total     0.088378                       # mshr miss rate for ReadReq accesses (Ratio)
system.cpu0.dcache.ReadReq.avgMshrMissLatency::cpu0.data 94793.166720                       # average ReadReq mshr miss latency ((Tick/Count))
system.cpu0.dcache.ReadReq.avgMshrMissLatency::total 94793.166720                       # average ReadReq mshr miss latency ((Tick/Count))
system.cpu0.dcache.WriteReq.hits::cpu0.data      1812414                       # number of WriteReq hits (Count)
system.cpu0.dcache.WriteReq.hits::total       1812414                       # number of WriteReq hits (Count)
system.cpu0.dcache.WriteReq.misses::cpu0.data       236193                       # number of WriteReq misses (Count)
system.cpu0.dcache.WriteReq.misses::total       236193                       # number of WriteReq misses (Count)
system.cpu0.dcache.WriteReq.missLatency::cpu0.data  24073580305                       # number of WriteReq miss ticks (Tick)
system.cpu0.dcache.WriteReq.missLatency::total  24073580305                       # number of WriteReq miss ticks (Tick)
system.cpu0.dcache.WriteReq.accesses::cpu0.data      2048607                       # number of WriteReq accesses(hits+misses) (Count)
system.cpu0.dcache.WriteReq.accesses::total      2048607                       # number of WriteReq accesses(hits+misses) (Count)
system.cpu0.dcache.WriteReq.missRate::cpu0.data     0.115294                       # miss rate for WriteReq accesses (Ratio)
system.cpu0.dcache.WriteReq.missRate::total     0.115294                       # miss rate for WriteReq accesses (Ratio)
system.cpu0.dcache.WriteReq.avgMissLatency::cpu0.data 101923.343643                       # average WriteReq miss latency ((Tick/Count))
system.cpu0.dcache.WriteReq.avgMissLatency::total 101923.343643                       # average WriteReq miss latency ((Tick/Count))
system.cpu0.dcache.WriteReq.mshrHits::cpu0.data           18                       # number of WriteReq MSHR hits (Count)
system.cpu0.dcache.WriteReq.mshrHits::total           18                       # number of WriteReq MSHR hits (Count)
system.cpu0.dcache.WriteReq.mshrMisses::cpu0.data       236175                       # number of WriteReq MSHR misses (Count)
system.cpu0.dcache.WriteReq.mshrMisses::total       236175                       # number of WriteReq MSHR misses (Count)
system.cpu0.dcache.WriteReq.mshrMissLatency::cpu0.data  23915373339                       # number of WriteReq MSHR miss ticks (Tick)
system.cpu0.dcache.WriteReq.mshrMissLatency::total  23915373339                       # number of WriteReq MSHR miss ticks (Tick)
system.cpu0.dcache.WriteReq.mshrMissRate::cpu0.data     0.115286                       # mshr miss rate for WriteReq accesses (Ratio)
system.cpu0.dcache.WriteReq.mshrMissRate::total     0.115286                       # mshr miss rate for WriteReq accesses (Ratio)
system.cpu0.dcache.WriteReq.avgMshrMissLatency::cpu0.data 101261.239924                       # average WriteReq mshr miss latency ((Tick/Count))
system.cpu0.dcache.WriteReq.avgMshrMissLatency::total 101261.239924                       # average WriteReq mshr miss latency ((Tick/Count))
system.cpu0.dcache.power_state.pwrStateResidencyTicks::UNDEFINED  37716155091                       # Cumulative time (in ticks) in various power states (Tick)
system.cpu0.dcache.tags.tagsInUse         1022.453297                       # Average ticks per tags in use ((Tick/Count))
system.cpu0.dcache.tags.totalRefs             6328772                       # Total number of references to valid blocks. (Count)
system.cpu0.dcache.tags.sampledRefs            912166                       # Sample count of references to valid blocks. (Count)
system.cpu0.dcache.tags.avgRefs              6.938180                       # Average number of references to valid blocks. ((Count/Count))
system.cpu0.dcache.tags.warmupTick             168165                       # The tick when the warmup percentage was hit. (Tick)
system.cpu0.dcache.tags.occupancies::cpu0.data  1022.453297                       # Average occupied blocks per tick, per requestor ((Count/Tick))
system.cpu0.dcache.tags.avgOccs::cpu0.data     0.998490                       # Average percentage of cache occupancy ((Ratio/Tick))
system.cpu0.dcache.tags.avgOccs::total       0.998490                       # Average percentage of cache occupancy ((Ratio/Tick))
system.cpu0.dcache.tags.occupanciesTaskId::1024         1024                       # Occupied blocks per task id (Count)
system.cpu0.dcache.tags.ageTaskId_1024::0          134                       # Occupied blocks per task id, per block age (Count)
system.cpu0.dcache.tags.ageTaskId_1024::1          889                       # Occupied blocks per task id, per block age (Count)
system.cpu0.dcache.tags.ageTaskId_1024::4            1                       # Occupied blocks per task id, per block age (Count)
system.cpu0.dcache.tags.ratioOccsTaskId::1024            1                       # Ratio of occupied blocks and all blocks, per task id (Ratio)
system.cpu0.dcache.tags.tagAccesses          20308932                       # Number of tag accesses (Count)
system.cpu0.dcache.tags.dataAccesses         20308932                       # Number of data accesses (Count)
system.cpu0.dcache.tags.power_state.pwrStateResidencyTicks::UNDEFINED  37716155091                       # Cumulative time (in ticks) in various power states (Tick)
system.cpu0.decode.idleCycles                 2758095                       # Number of cycles decode is idle (Cycle)
system.cpu0.decode.blockedCycles            102329693                       # Number of cycles decode is blocked (Cycle)
system.cpu0.decode.runCycles                  5908190                       # Number of cycles decode is running (Cycle)
system.cpu0.decode.unblockCycles              2003218                       # Number of cycles decode is unblocking (Cycle)
system.cpu0.decode.squashCycles                 10438                       # Number of cycles decode is squashing (Cycle)
system.cpu0.decode.branchResolved             2935937                       # Number of times decode resolved a branch (Count)
system.cpu0.decode.branchMispred                 1199                       # Number of times decode detected a branch misprediction (Count)
system.cpu0.decode.decodedInsts              57913634                       # Number of instructions handled by decode (Count)
system.cpu0.decode.squashedInsts                 5478                       # Number of squashed instructions handled by decode (Count)
system.cpu0.dtb_walker_cache.blockedCycles::no_mshrs            0                       # number of cycles access was blocked (Cycle)
system.cpu0.dtb_walker_cache.blockedCycles::no_targets            0                       # number of cycles access was blocked (Cycle)
system.cpu0.dtb_walker_cache.blockedCauses::no_mshrs            0                       # number of times access was blocked (Count)
system.cpu0.dtb_walker_cache.blockedCauses::no_targets            0                       # number of times access was blocked (Count)
system.cpu0.dtb_walker_cache.avgBlocked::no_mshrs          nan                       # average number of cycles each access was blocked ((Cycle/Count))
system.cpu0.dtb_walker_cache.avgBlocked::no_targets          nan                       # average number of cycles each access was blocked ((Cycle/Count))
system.cpu0.dtb_walker_cache.replacements            0                       # number of replacements (Count)
system.cpu0.dtb_walker_cache.power_state.pwrStateResidencyTicks::UNDEFINED  37716155091                       # Cumulative time (in ticks) in various power states (Tick)
system.cpu0.dtb_walker_cache.tags.tagsInUse            0                       # Average ticks per tags in use ((Tick/Count))
system.cpu0.dtb_walker_cache.tags.totalRefs            0                       # Total number of references to valid blocks. (Count)
system.cpu0.dtb_walker_cache.tags.sampledRefs            0                       # Sample count of references to valid blocks. (Count)
system.cpu0.dtb_walker_cache.tags.avgRefs          nan                       # Average number of references to valid blocks. ((Count/Count))
system.cpu0.dtb_walker_cache.tags.warmupTick            0                       # The tick when the warmup percentage was hit. (Tick)
system.cpu0.dtb_walker_cache.tags.tagAccesses            0                       # Number of tag accesses (Count)
system.cpu0.dtb_walker_cache.tags.dataAccesses            0                       # Number of data accesses (Count)
system.cpu0.dtb_walker_cache.tags.power_state.pwrStateResidencyTicks::UNDEFINED  37716155091                       # Cumulative time (in ticks) in various power states (Tick)
system.cpu0.fetch.icacheStallCycles           3468354                       # Number of cycles fetch is stalled on an Icache miss (Cycle)
system.cpu0.fetch.insts                      31162894                       # Number of instructions fetch has processed (Count)
system.cpu0.fetch.branches                    6171404                       # Number of branches that fetch encountered (Count)
system.cpu0.fetch.predictedBranches           2957722                       # Number of branches that fetch has predicted taken (Count)
system.cpu0.fetch.cycles                    109524533                       # Number of cycles fetch has run and was not squashing or blocked (Cycle)
system.cpu0.fetch.squashCycles                  23242                       # Number of cycles fetch has spent squashing (Cycle)
system.cpu0.fetch.miscStallCycles                 615                       # Number of cycles fetch has spent waiting on interrupts, or bad addresses, or out of MSHRs (Cycle)
system.cpu0.fetch.pendingTrapStallCycles         4438                       # Number of stall cycles due to pending traps (Cycle)
system.cpu0.fetch.icacheWaitRetryStallCycles           73                       # Number of stall cycles due to full MSHR (Cycle)
system.cpu0.fetch.cacheLines                  3364625                       # Number of cache lines fetched (Count)
system.cpu0.fetch.icacheSquashes                 3464                       # Number of outstanding Icache misses that were squashed (Count)
system.cpu0.fetch.nisnDist::samples         113009634                       # Number of instructions fetched each cycle (Total) (Count)
system.cpu0.fetch.nisnDist::mean             0.513355                       # Number of instructions fetched each cycle (Total) (Count)
system.cpu0.fetch.nisnDist::stdev            1.819275                       # Number of instructions fetched each cycle (Total) (Count)
system.cpu0.fetch.nisnDist::underflows              0      0.00%      0.00% # Number of instructions fetched each cycle (Total) (Count)
system.cpu0.fetch.nisnDist::0               103163753     91.29%     91.29% # Number of instructions fetched each cycle (Total) (Count)
system.cpu0.fetch.nisnDist::1                  592469      0.52%     91.81% # Number of instructions fetched each cycle (Total) (Count)
system.cpu0.fetch.nisnDist::2                  466968      0.41%     92.23% # Number of instructions fetched each cycle (Total) (Count)
system.cpu0.fetch.nisnDist::3                 1189218      1.05%     93.28% # Number of instructions fetched each cycle (Total) (Count)
system.cpu0.fetch.nisnDist::4                 1794260      1.59%     94.87% # Number of instructions fetched each cycle (Total) (Count)
system.cpu0.fetch.nisnDist::5                   93195      0.08%     94.95% # Number of instructions fetched each cycle (Total) (Count)
system.cpu0.fetch.nisnDist::6                  103873      0.09%     95.04% # Number of instructions fetched each cycle (Total) (Count)
system.cpu0.fetch.nisnDist::7                  193429      0.17%     95.21% # Number of instructions fetched each cycle (Total) (Count)
system.cpu0.fetch.nisnDist::8                 5412469      4.79%    100.00% # Number of instructions fetched each cycle (Total) (Count)
system.cpu0.fetch.nisnDist::overflows               0      0.00%    100.00% # Number of instructions fetched each cycle (Total) (Count)
system.cpu0.fetch.nisnDist::min_value               0                       # Number of instructions fetched each cycle (Total) (Count)
system.cpu0.fetch.nisnDist::max_value               8                       # Number of instructions fetched each cycle (Total) (Count)
system.cpu0.fetch.nisnDist::total           113009634                       # Number of instructions fetched each cycle (Total) (Count)
system.cpu0.fetch.branchRate                 0.054488                       # Number of branch fetches per cycle (Ratio)
system.cpu0.fetch.rate                       0.275141                       # Number of inst fetches per cycle ((Count/Cycle))
system.cpu0.icache.demandHits::cpu0.inst      3360922                       # number of demand (read+write) hits (Count)
system.cpu0.icache.demandHits::total          3360922                       # number of demand (read+write) hits (Count)
system.cpu0.icache.overallHits::cpu0.inst      3360922                       # number of overall hits (Count)
system.cpu0.icache.overallHits::total         3360922                       # number of overall hits (Count)
system.cpu0.icache.demandMisses::cpu0.inst         3703                       # number of demand (read+write) misses (Count)
system.cpu0.icache.demandMisses::total           3703                       # number of demand (read+write) misses (Count)
system.cpu0.icache.overallMisses::cpu0.inst         3703                       # number of overall misses (Count)
system.cpu0.icache.overallMisses::total          3703                       # number of overall misses (Count)
system.cpu0.icache.demandMissLatency::cpu0.inst    207864258                       # number of demand (read+write) miss ticks (Tick)
system.cpu0.icache.demandMissLatency::total    207864258                       # number of demand (read+write) miss ticks (Tick)
system.cpu0.icache.overallMissLatency::cpu0.inst    207864258                       # number of overall miss ticks (Tick)
system.cpu0.icache.overallMissLatency::total    207864258                       # number of overall miss ticks (Tick)
system.cpu0.icache.demandAccesses::cpu0.inst      3364625                       # number of demand (read+write) accesses (Count)
system.cpu0.icache.demandAccesses::total      3364625                       # number of demand (read+write) accesses (Count)
system.cpu0.icache.overallAccesses::cpu0.inst      3364625                       # number of overall (read+write) accesses (Count)
system.cpu0.icache.overallAccesses::total      3364625                       # number of overall (read+write) accesses (Count)
system.cpu0.icache.demandMissRate::cpu0.inst     0.001101                       # miss rate for demand accesses (Ratio)
system.cpu0.icache.demandMissRate::total     0.001101                       # miss rate for demand accesses (Ratio)
system.cpu0.icache.overallMissRate::cpu0.inst     0.001101                       # miss rate for overall accesses (Ratio)
system.cpu0.icache.overallMissRate::total     0.001101                       # miss rate for overall accesses (Ratio)
system.cpu0.icache.demandAvgMissLatency::cpu0.inst 56134.015123                       # average overall miss latency in ticks ((Tick/Count))
system.cpu0.icache.demandAvgMissLatency::total 56134.015123                       # average overall miss latency in ticks ((Tick/Count))
system.cpu0.icache.overallAvgMissLatency::cpu0.inst 56134.015123                       # average overall miss latency ((Tick/Count))
system.cpu0.icache.overallAvgMissLatency::total 56134.015123                       # average overall miss latency ((Tick/Count))
system.cpu0.icache.blockedCycles::no_mshrs         1150                       # number of cycles access was blocked (Cycle)
system.cpu0.icache.blockedCycles::no_targets            0                       # number of cycles access was blocked (Cycle)
system.cpu0.icache.blockedCauses::no_mshrs           20                       # number of times access was blocked (Count)
system.cpu0.icache.blockedCauses::no_targets            0                       # number of times access was blocked (Count)
system.cpu0.icache.avgBlocked::no_mshrs     57.500000                       # average number of cycles each access was blocked ((Cycle/Count))
system.cpu0.icache.avgBlocked::no_targets          nan                       # average number of cycles each access was blocked ((Cycle/Count))
system.cpu0.icache.writebacks::writebacks         2444                       # number of writebacks (Count)
system.cpu0.icache.writebacks::total             2444                       # number of writebacks (Count)
system.cpu0.icache.demandMshrHits::cpu0.inst          741                       # number of demand (read+write) MSHR hits (Count)
system.cpu0.icache.demandMshrHits::total          741                       # number of demand (read+write) MSHR hits (Count)
system.cpu0.icache.overallMshrHits::cpu0.inst          741                       # number of overall MSHR hits (Count)
system.cpu0.icache.overallMshrHits::total          741                       # number of overall MSHR hits (Count)
system.cpu0.icache.demandMshrMisses::cpu0.inst         2962                       # number of demand (read+write) MSHR misses (Count)
system.cpu0.icache.demandMshrMisses::total         2962                       # number of demand (read+write) MSHR misses (Count)
system.cpu0.icache.overallMshrMisses::cpu0.inst         2962                       # number of overall MSHR misses (Count)
system.cpu0.icache.overallMshrMisses::total         2962                       # number of overall MSHR misses (Count)
system.cpu0.icache.demandMshrMissLatency::cpu0.inst    166407423                       # number of demand (read+write) MSHR miss ticks (Tick)
system.cpu0.icache.demandMshrMissLatency::total    166407423                       # number of demand (read+write) MSHR miss ticks (Tick)
system.cpu0.icache.overallMshrMissLatency::cpu0.inst    166407423                       # number of overall MSHR miss ticks (Tick)
system.cpu0.icache.overallMshrMissLatency::total    166407423                       # number of overall MSHR miss ticks (Tick)
system.cpu0.icache.demandMshrMissRate::cpu0.inst     0.000880                       # mshr miss ratio for demand accesses (Ratio)
system.cpu0.icache.demandMshrMissRate::total     0.000880                       # mshr miss ratio for demand accesses (Ratio)
system.cpu0.icache.overallMshrMissRate::cpu0.inst     0.000880                       # mshr miss ratio for overall accesses (Ratio)
system.cpu0.icache.overallMshrMissRate::total     0.000880                       # mshr miss ratio for overall accesses (Ratio)
system.cpu0.icache.demandAvgMshrMissLatency::cpu0.inst 56180.764011                       # average overall mshr miss latency ((Tick/Count))
system.cpu0.icache.demandAvgMshrMissLatency::total 56180.764011                       # average overall mshr miss latency ((Tick/Count))
system.cpu0.icache.overallAvgMshrMissLatency::cpu0.inst 56180.764011                       # average overall mshr miss latency ((Tick/Count))
system.cpu0.icache.overallAvgMshrMissLatency::total 56180.764011                       # average overall mshr miss latency ((Tick/Count))
system.cpu0.icache.replacements                  2444                       # number of replacements (Count)
system.cpu0.icache.ReadReq.hits::cpu0.inst      3360922                       # number of ReadReq hits (Count)
system.cpu0.icache.ReadReq.hits::total        3360922                       # number of ReadReq hits (Count)
system.cpu0.icache.ReadReq.misses::cpu0.inst         3703                       # number of ReadReq misses (Count)
system.cpu0.icache.ReadReq.misses::total         3703                       # number of ReadReq misses (Count)
system.cpu0.icache.ReadReq.missLatency::cpu0.inst    207864258                       # number of ReadReq miss ticks (Tick)
system.cpu0.icache.ReadReq.missLatency::total    207864258                       # number of ReadReq miss ticks (Tick)
system.cpu0.icache.ReadReq.accesses::cpu0.inst      3364625                       # number of ReadReq accesses(hits+misses) (Count)
system.cpu0.icache.ReadReq.accesses::total      3364625                       # number of ReadReq accesses(hits+misses) (Count)
system.cpu0.icache.ReadReq.missRate::cpu0.inst     0.001101                       # miss rate for ReadReq accesses (Ratio)
system.cpu0.icache.ReadReq.missRate::total     0.001101                       # miss rate for ReadReq accesses (Ratio)
system.cpu0.icache.ReadReq.avgMissLatency::cpu0.inst 56134.015123                       # average ReadReq miss latency ((Tick/Count))
system.cpu0.icache.ReadReq.avgMissLatency::total 56134.015123                       # average ReadReq miss latency ((Tick/Count))
system.cpu0.icache.ReadReq.mshrHits::cpu0.inst          741                       # number of ReadReq MSHR hits (Count)
system.cpu0.icache.ReadReq.mshrHits::total          741                       # number of ReadReq MSHR hits (Count)
system.cpu0.icache.ReadReq.mshrMisses::cpu0.inst         2962                       # number of ReadReq MSHR misses (Count)
system.cpu0.icache.ReadReq.mshrMisses::total         2962                       # number of ReadReq MSHR misses (Count)
system.cpu0.icache.ReadReq.mshrMissLatency::cpu0.inst    166407423                       # number of ReadReq MSHR miss ticks (Tick)
system.cpu0.icache.ReadReq.mshrMissLatency::total    166407423                       # number of ReadReq MSHR miss ticks (Tick)
system.cpu0.icache.ReadReq.mshrMissRate::cpu0.inst     0.000880                       # mshr miss rate for ReadReq accesses (Ratio)
system.cpu0.icache.ReadReq.mshrMissRate::total     0.000880                       # mshr miss rate for ReadReq accesses (Ratio)
system.cpu0.icache.ReadReq.avgMshrMissLatency::cpu0.inst 56180.764011                       # average ReadReq mshr miss latency ((Tick/Count))
system.cpu0.icache.ReadReq.avgMshrMissLatency::total 56180.764011                       # average ReadReq mshr miss latency ((Tick/Count))
system.cpu0.icache.power_state.pwrStateResidencyTicks::UNDEFINED  37716155091                       # Cumulative time (in ticks) in various power states (Tick)
system.cpu0.icache.tags.tagsInUse          510.220388                       # Average ticks per tags in use ((Tick/Count))
system.cpu0.icache.tags.totalRefs             3363883                       # Total number of references to valid blocks. (Count)
system.cpu0.icache.tags.sampledRefs              2961                       # Sample count of references to valid blocks. (Count)
system.cpu0.icache.tags.avgRefs           1136.063154                       # Average number of references to valid blocks. ((Count/Count))
system.cpu0.icache.tags.warmupTick              84249                       # The tick when the warmup percentage was hit. (Tick)
system.cpu0.icache.tags.occupancies::cpu0.inst   510.220388                       # Average occupied blocks per tick, per requestor ((Count/Tick))
system.cpu0.icache.tags.avgOccs::cpu0.inst     0.996524                       # Average percentage of cache occupancy ((Ratio/Tick))
system.cpu0.icache.tags.avgOccs::total       0.996524                       # Average percentage of cache occupancy ((Ratio/Tick))
system.cpu0.icache.tags.occupanciesTaskId::1024          511                       # Occupied blocks per task id (Count)
system.cpu0.icache.tags.ageTaskId_1024::0          128                       # Occupied blocks per task id, per block age (Count)
system.cpu0.icache.tags.ageTaskId_1024::1           70                       # Occupied blocks per task id, per block age (Count)
system.cpu0.icache.tags.ageTaskId_1024::4          313                       # Occupied blocks per task id, per block age (Count)
system.cpu0.icache.tags.ratioOccsTaskId::1024     0.998047                       # Ratio of occupied blocks and all blocks, per task id (Ratio)
system.cpu0.icache.tags.tagAccesses           6732211                       # Number of tag accesses (Count)
system.cpu0.icache.tags.dataAccesses          6732211                       # Number of data accesses (Count)
system.cpu0.icache.tags.power_state.pwrStateResidencyTicks::UNDEFINED  37716155091                       # Cumulative time (in ticks) in various power states (Tick)
system.cpu0.iew.idleCycles                          0                       # Number of cycles IEW is idle (Cycle)
system.cpu0.iew.squashCycles                    10438                       # Number of cycles IEW is squashing (Cycle)
system.cpu0.iew.blockCycles                  20058592                       # Number of cycles IEW is blocking (Cycle)
system.cpu0.iew.unblockCycles                 4186976                       # Number of cycles IEW is unblocking (Cycle)
system.cpu0.iew.dispatchedInsts              57810231                       # Number of instructions dispatched to IQ (Count)
system.cpu0.iew.dispSquashedInsts                 832                       # Number of squashed instructions skipped by dispatch (Count)
system.cpu0.iew.dispLoadInsts                 7682820                       # Number of dispatched load instructions (Count)
system.cpu0.iew.dispStoreInsts                2070816                       # Number of dispatched store instructions (Count)
system.cpu0.iew.dispNonSpecInsts                  589                       # Number of dispatched non-speculative instructions (Count)
system.cpu0.iew.iqFullEvents                     3283                       # Number of times the IQ has become full, causing a stall (Count)
system.cpu0.iew.lsqFullEvents                 4057962                       # Number of times the LSQ has become full, causing a stall (Count)
system.cpu0.iew.memOrderViolationEvents           262                       # Number of memory order violations (Count)
system.cpu0.iew.predictedTakenIncorrect          2757                       # Number of branches that were predicted taken incorrectly (Count)
system.cpu0.iew.predictedNotTakenIncorrect         7327                       # Number of branches that were predicted not taken incorrectly (Count)
system.cpu0.iew.branchMispredicts               10084                       # Number of branch mispredicts detected at execute (Count)
system.cpu0.iew.instsToCommit                57659823                       # Cumulative count of insts sent to commit (Count)
system.cpu0.iew.writebackCount               57650653                       # Cumulative count of insts written-back (Count)
system.cpu0.iew.producerInst                 42199293                       # Number of instructions producing a value (Count)
system.cpu0.iew.consumerInst                 70104344                       # Number of instructions consuming a value (Count)
system.cpu0.iew.wbRate                       0.509004                       # Insts written-back per cycle ((Count/Cycle))
system.cpu0.iew.wbFanout                     0.601950                       # Average fanout of values written-back ((Count/Count))
system.cpu0.interrupts.clk_domain.clock          5328                       # Clock period in ticks (Tick)
system.cpu0.itb_walker_cache.blockedCycles::no_mshrs            0                       # number of cycles access was blocked (Cycle)
system.cpu0.itb_walker_cache.blockedCycles::no_targets            0                       # number of cycles access was blocked (Cycle)
system.cpu0.itb_walker_cache.blockedCauses::no_mshrs            0                       # number of times access was blocked (Count)
system.cpu0.itb_walker_cache.blockedCauses::no_targets            0                       # number of times access was blocked (Count)
system.cpu0.itb_walker_cache.avgBlocked::no_mshrs          nan                       # average number of cycles each access was blocked ((Cycle/Count))
system.cpu0.itb_walker_cache.avgBlocked::no_targets          nan                       # average number of cycles each access was blocked ((Cycle/Count))
system.cpu0.itb_walker_cache.replacements            0                       # number of replacements (Count)
system.cpu0.itb_walker_cache.power_state.pwrStateResidencyTicks::UNDEFINED  37716155091                       # Cumulative time (in ticks) in various power states (Tick)
system.cpu0.itb_walker_cache.tags.tagsInUse            0                       # Average ticks per tags in use ((Tick/Count))
system.cpu0.itb_walker_cache.tags.totalRefs            0                       # Total number of references to valid blocks. (Count)
[...]
system.membus.snoopFanout::overflows                0      0.00%    100.00% # Request fanout histogram (Count)
system.membus.snoopFanout::min_value                0                       # Request fanout histogram (Count)
system.membus.snoopFanout::max_value                0                       # Request fanout histogram (Count)
system.membus.snoopFanout::total              4631676                       # Request fanout histogram (Count)
system.membus.power_state.pwrStateResidencyTicks::UNDEFINED  37716155091                       # Cumulative time (in ticks) in various power states (Tick)
system.membus.reqLayer16.occupancy         5076880445                       # Layer occupancy (ticks) (Tick)
system.membus.reqLayer16.utilization              0.1                       # Layer utilization (Ratio)
system.membus.reqLayer17.occupancy         5077156458                       # Layer occupancy (ticks) (Tick)
system.membus.reqLayer17.utilization              0.1                       # Layer utilization (Ratio)
system.membus.reqLayer18.occupancy         5076234952                       # Layer occupancy (ticks) (Tick)
system.membus.reqLayer18.utilization              0.1                       # Layer utilization (Ratio)
system.membus.reqLayer19.occupancy         5078486166                       # Layer occupancy (ticks) (Tick)
system.membus.reqLayer19.utilization              0.1                       # Layer utilization (Ratio)
system.membus.respLayer1.occupancy        23368799868                       # Layer occupancy (ticks) (Tick)
system.membus.respLayer1.utilization              0.6                       # Layer utilization (Ratio)
system.membus.snoop_filter.totRequests        9217615                       # Total number of requests made to the snoop filter. (Count)
system.membus.snoop_filter.hitSingleRequests      4592271                       # Number of requests hitting in the snoop filter with a single holder of the requested data. (Count)
system.membus.snoop_filter.hitMultiRequests            0                       # Number of requests hitting in the snoop filter with multiple (>1) holders of the requested data. (Count)
system.membus.snoop_filter.totSnoops                0                       # Total number of snoops made to the snoop filter. (Count)
system.membus.snoop_filter.hitSingleSnoops            0                       # Number of snoops hitting in the snoop filter with a single holder of the requested data. (Count)
system.membus.snoop_filter.hitMultiSnoops            0                       # Number of snoops hitting in the snoop filter with multiple (>1) holders of the requested data. (Count)
system.tol2bus.transDist::ReadResp            2759584                       # Transaction distribution (Count)
system.tol2bus.transDist::ReadRespWithInvalidate            1                       # Transaction distribution (Count)
system.tol2bus.transDist::WritebackDirty      4002958                       # Transaction distribution (Count)
system.tol2bus.transDist::WritebackClean         2449                       # Transaction distribution (Count)
system.tol2bus.transDist::CleanEvict          5220297                       # Transaction distribution (Count)
system.tol2bus.transDist::UpgradeReq              244                       # Transaction distribution (Count)
system.tol2bus.transDist::UpgradeResp             244                       # Transaction distribution (Count)
system.tol2bus.transDist::ReadExReq           1877203                       # Transaction distribution (Count)
system.tol2bus.transDist::ReadExResp          1877203                       # Transaction distribution (Count)
system.tol2bus.transDist::ReadCleanReq           3512                       # Transaction distribution (Count)
system.tol2bus.transDist::ReadSharedReq       2756074                       # Transaction distribution (Count)
system.tol2bus.pktCount_system.cpu0.icache.mem_side_port::system.l2.cpu_side_port         8361                       # Packet count per connected requestor and responder (Count)
system.tol2bus.pktCount_system.cpu0.dcache.mem_side_port::system.l2.cpu_side_port      2734336                       # Packet count per connected requestor and responder (Count)
system.tol2bus.pktCount_system.cpu1.icache.mem_side_port::system.l2.cpu_side_port          260                       # Packet count per connected requestor and responder (Count)
system.tol2bus.pktCount_system.cpu1.dcache.mem_side_port::system.l2.cpu_side_port      1593683                       # Packet count per connected requestor and responder (Count)
system.tol2bus.pktCount_system.cpu2.icache.mem_side_port::system.l2.cpu_side_port          135                       # Packet count per connected requestor and responder (Count)
system.tol2bus.pktCount_system.cpu2.dcache.mem_side_port::system.l2.cpu_side_port      1593434                       # Packet count per connected requestor and responder (Count)
system.tol2bus.pktCount_system.cpu3.icache.mem_side_port::system.l2.cpu_side_port          138                       # Packet count per connected requestor and responder (Count)
system.tol2bus.pktCount_system.cpu3.dcache.mem_side_port::system.l2.cpu_side_port      1593473                       # Packet count per connected requestor and responder (Count)
system.tol2bus.pktCount_system.cpu4.icache.mem_side_port::system.l2.cpu_side_port          129                       # Packet count per connected requestor and responder (Count)
system.tol2bus.pktCount_system.cpu4.dcache.mem_side_port::system.l2.cpu_side_port      1593421                       # Packet count per connected requestor and responder (Count)
system.tol2bus.pktCount_system.cpu5.icache.mem_side_port::system.l2.cpu_side_port          140                       # Packet count per connected requestor and responder (Count)
system.tol2bus.pktCount_system.cpu5.dcache.mem_side_port::system.l2.cpu_side_port      1593440                       # Packet count per connected requestor and responder (Count)
system.tol2bus.pktCount_system.cpu6.icache.mem_side_port::system.l2.cpu_side_port          139                       # Packet count per connected requestor and responder (Count)
system.tol2bus.pktCount_system.cpu6.dcache.mem_side_port::system.l2.cpu_side_port      1593438                       # Packet count per connected requestor and responder (Count)
system.tol2bus.pktCount_system.cpu7.icache.mem_side_port::system.l2.cpu_side_port          139                       # Packet count per connected requestor and responder (Count)
system.tol2bus.pktCount_system.cpu7.dcache.mem_side_port::system.l2.cpu_side_port      1593482                       # Packet count per connected requestor and responder (Count)
system.tol2bus.pktCount::total               13898148                       # Packet count per connected requestor and responder (Count)
system.tol2bus.pktSize_system.cpu0.icache.mem_side_port::system.l2.cpu_side_port       345536                       # Cumulative packet size per connected requestor and responder (Byte)
system.tol2bus.pktSize_system.cpu0.dcache.mem_side_port::system.l2.cpu_side_port     74458432                       # Cumulative packet size per connected requestor and responder (Byte)
system.tol2bus.pktSize_system.cpu1.icache.mem_side_port::system.l2.cpu_side_port         8320                       # Cumulative packet size per connected requestor and responder (Byte)
system.tol2bus.pktSize_system.cpu1.dcache.mem_side_port::system.l2.cpu_side_port     50009600                       # Cumulative packet size per connected requestor and responder (Byte)
system.tol2bus.pktSize_system.cpu2.icache.mem_side_port::system.l2.cpu_side_port         4224                       # Cumulative packet size per connected requestor and responder (Byte)
system.tol2bus.pktSize_system.cpu2.dcache.mem_side_port::system.l2.cpu_side_port     50004096                       # Cumulative packet size per connected requestor and responder (Byte)
system.tol2bus.pktSize_system.cpu3.icache.mem_side_port::system.l2.cpu_side_port         4288                       # Cumulative packet size per connected requestor and responder (Byte)
system.tol2bus.pktSize_system.cpu3.dcache.mem_side_port::system.l2.cpu_side_port     50005056                       # Cumulative packet size per connected requestor and responder (Byte)
system.tol2bus.pktSize_system.cpu4.icache.mem_side_port::system.l2.cpu_side_port         4032                       # Cumulative packet size per connected requestor and responder (Byte)
system.tol2bus.pktSize_system.cpu4.dcache.mem_side_port::system.l2.cpu_side_port     50003904                       # Cumulative packet size per connected requestor and responder (Byte)
system.tol2bus.pktSize_system.cpu5.icache.mem_side_port::system.l2.cpu_side_port         4352                       # Cumulative packet size per connected requestor and responder (Byte)
system.tol2bus.pktSize_system.cpu5.dcache.mem_side_port::system.l2.cpu_side_port     50003904                       # Cumulative packet size per connected requestor and responder (Byte)
system.tol2bus.pktSize_system.cpu6.icache.mem_side_port::system.l2.cpu_side_port         4352                       # Cumulative packet size per connected requestor and responder (Byte)
system.tol2bus.pktSize_system.cpu6.dcache.mem_side_port::system.l2.cpu_side_port     50004288                       # Cumulative packet size per connected requestor and responder (Byte)
system.tol2bus.pktSize_system.cpu7.icache.mem_side_port::system.l2.cpu_side_port         4352                       # Cumulative packet size per connected requestor and responder (Byte)
system.tol2bus.pktSize_system.cpu7.dcache.mem_side_port::system.l2.cpu_side_port     50005056                       # Cumulative packet size per connected requestor and responder (Byte)
system.tol2bus.pktSize::total               424873792                       # Cumulative packet size per connected requestor and responder (Byte)
system.tol2bus.snoops                         4601621                       # Total snoops (Count)
system.tol2bus.snoopTraffic                 128226688                       # Total snoop traffic (Byte)
system.tol2bus.snoopFanout::samples          10112303                       # Request fanout histogram (Count)
system.tol2bus.snoopFanout::mean             0.003084                       # Request fanout histogram (Count)
system.tol2bus.snoopFanout::stdev            0.085496                       # Request fanout histogram (Count)
system.tol2bus.snoopFanout::underflows              0      0.00%      0.00% # Request fanout histogram (Count)
system.tol2bus.snoopFanout::0                10088438     99.76%     99.76% # Request fanout histogram (Count)
system.tol2bus.snoopFanout::1                   21952      0.22%     99.98% # Request fanout histogram (Count)
system.tol2bus.snoopFanout::2                     377      0.00%     99.98% # Request fanout histogram (Count)
system.tol2bus.snoopFanout::3                     238      0.00%     99.99% # Request fanout histogram (Count)
system.tol2bus.snoopFanout::4                     231      0.00%     99.99% # Request fanout histogram (Count)
system.tol2bus.snoopFanout::5                     230      0.00%     99.99% # Request fanout histogram (Count)
system.tol2bus.snoopFanout::6                     224      0.00%     99.99% # Request fanout histogram (Count)
system.tol2bus.snoopFanout::7                     559      0.01%    100.00% # Request fanout histogram (Count)
system.tol2bus.snoopFanout::8                      52      0.00%    100.00% # Request fanout histogram (Count)
system.tol2bus.snoopFanout::9                       1      0.00%    100.00% # Request fanout histogram (Count)
system.tol2bus.snoopFanout::10                      1      0.00%    100.00% # Request fanout histogram (Count)
system.tol2bus.snoopFanout::11                      0      0.00%    100.00% # Request fanout histogram (Count)
system.tol2bus.snoopFanout::12                      0      0.00%    100.00% # Request fanout histogram (Count)
system.tol2bus.snoopFanout::13                      0      0.00%    100.00% # Request fanout histogram (Count)
system.tol2bus.snoopFanout::14                      0      0.00%    100.00% # Request fanout histogram (Count)
system.tol2bus.snoopFanout::15                      0      0.00%    100.00% # Request fanout histogram (Count)
system.tol2bus.snoopFanout::16                      0      0.00%    100.00% # Request fanout histogram (Count)
system.tol2bus.snoopFanout::17                      0      0.00%    100.00% # Request fanout histogram (Count)
system.tol2bus.snoopFanout::18                      0      0.00%    100.00% # Request fanout histogram (Count)
system.tol2bus.snoopFanout::19                      0      0.00%    100.00% # Request fanout histogram (Count)
system.tol2bus.snoopFanout::20                      0      0.00%    100.00% # Request fanout histogram (Count)
system.tol2bus.snoopFanout::21                      0      0.00%    100.00% # Request fanout histogram (Count)
system.tol2bus.snoopFanout::22                      0      0.00%    100.00% # Request fanout histogram (Count)
system.tol2bus.snoopFanout::23                      0      0.00%    100.00% # Request fanout histogram (Count)
system.tol2bus.snoopFanout::24                      0      0.00%    100.00% # Request fanout histogram (Count)
system.tol2bus.snoopFanout::25                      0      0.00%    100.00% # Request fanout histogram (Count)
system.tol2bus.snoopFanout::26                      0      0.00%    100.00% # Request fanout histogram (Count)
system.tol2bus.snoopFanout::27                      0      0.00%    100.00% # Request fanout histogram (Count)
system.tol2bus.snoopFanout::28                      0      0.00%    100.00% # Request fanout histogram (Count)
system.tol2bus.snoopFanout::29                      0      0.00%    100.00% # Request fanout histogram (Count)
system.tol2bus.snoopFanout::30                      0      0.00%    100.00% # Request fanout histogram (Count)
system.tol2bus.snoopFanout::31                      0      0.00%    100.00% # Request fanout histogram (Count)
system.tol2bus.snoopFanout::32                      0      0.00%    100.00% # Request fanout histogram (Count)
system.tol2bus.snoopFanout::overflows               0      0.00%    100.00% # Request fanout histogram (Count)
system.tol2bus.snoopFanout::min_value               0                       # Request fanout histogram (Count)
system.tol2bus.snoopFanout::max_value              10                       # Request fanout histogram (Count)
system.tol2bus.snoopFanout::total            10112303                       # Request fanout histogram (Count)
system.tol2bus.power_state.pwrStateResidencyTicks::UNDEFINED  37716155091                       # Cumulative time (in ticks) in various power states (Tick)
system.tol2bus.reqLayer0.occupancy         5538711611                       # Layer occupancy (ticks) (Tick)
system.tol2bus.reqLayer0.utilization              0.1                       # Layer utilization (Ratio)
system.tol2bus.respLayer0.occupancy           2959023                       # Layer occupancy (ticks) (Tick)
system.tol2bus.respLayer0.utilization             0.0                       # Layer utilization (Ratio)
system.tol2bus.respLayer1.occupancy         911287078                       # Layer occupancy (ticks) (Tick)
system.tol2bus.respLayer1.utilization             0.0                       # Layer utilization (Ratio)
system.tol2bus.respLayer12.occupancy            75534                       # Layer occupancy (ticks) (Tick)
system.tol2bus.respLayer12.utilization            0.0                       # Layer utilization (Ratio)
system.tol2bus.respLayer13.occupancy        531071610                       # Layer occupancy (ticks) (Tick)
system.tol2bus.respLayer13.utilization            0.0                       # Layer utilization (Ratio)
system.tol2bus.respLayer16.occupancy            70550                       # Layer occupancy (ticks) (Tick)
system.tol2bus.respLayer16.utilization            0.0                       # Layer utilization (Ratio)
system.tol2bus.respLayer17.occupancy        531057968                       # Layer occupancy (ticks) (Tick)
system.tol2bus.respLayer17.utilization            0.0                       # Layer utilization (Ratio)
system.tol2bus.respLayer20.occupancy            76537                       # Layer occupancy (ticks) (Tick)
system.tol2bus.respLayer20.utilization            0.0                       # Layer utilization (Ratio)
system.tol2bus.respLayer21.occupancy        531064280                       # Layer occupancy (ticks) (Tick)
system.tol2bus.respLayer21.utilization            0.0                       # Layer utilization (Ratio)
system.tol2bus.respLayer24.occupancy            75217                       # Layer occupancy (ticks) (Tick)
system.tol2bus.respLayer24.utilization            0.0                       # Layer utilization (Ratio)
system.tol2bus.respLayer25.occupancy        531062627                       # Layer occupancy (ticks) (Tick)
system.tol2bus.respLayer25.utilization            0.0                       # Layer utilization (Ratio)
system.tol2bus.respLayer28.occupancy            74873                       # Layer occupancy (ticks) (Tick)
system.tol2bus.respLayer28.utilization            0.0                       # Layer utilization (Ratio)
system.tol2bus.respLayer29.occupancy        531072952                       # Layer occupancy (ticks) (Tick)
system.tol2bus.respLayer29.utilization            0.0                       # Layer utilization (Ratio)
system.tol2bus.respLayer4.occupancy            134803                       # Layer occupancy (ticks) (Tick)
system.tol2bus.respLayer4.utilization             0.0                       # Layer utilization (Ratio)
system.tol2bus.respLayer5.occupancy         531157513                       # Layer occupancy (ticks) (Tick)
system.tol2bus.respLayer5.utilization             0.0                       # Layer utilization (Ratio)
system.tol2bus.respLayer8.occupancy             77194                       # Layer occupancy (ticks) (Tick)
system.tol2bus.respLayer8.utilization             0.0                       # Layer utilization (Ratio)
system.tol2bus.respLayer9.occupancy         531060644                       # Layer occupancy (ticks) (Tick)
system.tol2bus.respLayer9.utilization             0.0                       # Layer utilization (Ratio)
system.tol2bus.snoop_filter.totRequests      11506839                       # Total number of requests made to the snoop filter. (Count)
system.tol2bus.snoop_filter.hitSingleRequests      5994084                       # Number of requests hitting in the snoop filter with a single holder of the requested data. (Count)
system.tol2bus.snoop_filter.hitMultiRequests        10044                       # Number of requests hitting in the snoop filter with multiple (>1) holders of the requested data. (Count)
system.tol2bus.snoop_filter.totSnoops           13570                       # Total number of snoops made to the snoop filter. (Count)
system.tol2bus.snoop_filter.hitSingleSnoops        13290                       # Number of snoops hitting in the snoop filter with a single holder of the requested data. (Count)
system.tol2bus.snoop_filter.hitMultiSnoops          280                       # Number of snoops hitting in the snoop filter with multiple (>1) holders of the requested data. (Count)
system.voltage_domain.voltage                       1                       # Voltage in Volts (Volt)
system.workload.inst.arm                            0                       # number of arm instructions executed (Count)
system.workload.inst.quiesce                        0                       # number of quiesce instructions executed (Count)

---------- End Simulation Statistics   ----------
