
---------- Begin Simulation Statistics ----------
simSeconds                                   0.074301                       # Number of seconds simulated (Second)
simTicks                                  74301211250                       # Number of ticks simulated (Tick)
finalTick                                 74301211250                       # Number of ticks from beginning of simulation (restored from checkpoints and never reset) (Tick)
simFreq                                  1000000000000                       # The number of ticks per simulated second ((Tick/Second))
hostSeconds                                   1349.86                       # Real time elapsed on the host (Second)
hostTickRate                                 55043824                       # The number of ticks simulated per host second (ticks/s) ((Tick/Second))
hostMemory                                     766528                       # Number of bytes of host memory used (Byte)
simInsts                                    114569046                       # Number of instructions simulated (Count)
simOps                                      207924408                       # Number of ops (including micro ops) simulated (Count)
hostInstRate                                    84875                       # Simulator instruction rate (inst/s) ((Count/Second))
hostOpRate                                     154035                       # Simulator op (including micro ops) rate (op/s) ((Count/Second))
system.clk_domain.clock                          1000                       # Clock period in ticks (Tick)
system.cpu0.numCycles                       297204846                       # Number of cpu cycles simulated (Cycle)
system.cpu0.numWorkItemsStarted                     0                       # Number of work items this cpu started (Count)
system.cpu0.numWorkItemsCompleted                   0                       # Number of work items this cpu completed (Count)
system.cpu0.instsAdded                       75646898                       # Number of instructions added to the IQ (excludes non-spec) (Count)
system.cpu0.nonSpecInstsAdded                    1159                       # Number of non-speculative instructions added to the IQ (Count)
system.cpu0.instsIssued                      75578580                       # Number of instructions issued (Count)
system.cpu0.squashedInstsIssued                  3289                       # Number of squashed instructions issued (Count)
system.cpu0.squashedInstsExamined              630641                       # Number of squashed instructions iterated over during squash; mainly for profiling (Count)
system.cpu0.squashedOperandsExamined           744603                       # Number of squashed operands that are examined and possibly removed from graph (Count)
system.cpu0.squashedNonSpecRemoved                373                       # Number of squashed non-spec instructions that were removed (Count)
system.cpu0.numIssuedDist::samples          296787696                       # Number of insts issued each cycle (Count)
system.cpu0.numIssuedDist::mean              0.254655                       # Number of insts issued each cycle (Count)
system.cpu0.numIssuedDist::stdev             0.999688                       # Number of insts issued each cycle (Count)
system.cpu0.numIssuedDist::underflows               0      0.00%      0.00% # Number of insts issued each cycle (Count)
system.cpu0.numIssuedDist::0                271752676     91.56%     91.56% # Number of insts issued each cycle (Count)
system.cpu0.numIssuedDist::1                  6919280      2.33%     93.90% # Number of insts issued each cycle (Count)
system.cpu0.numIssuedDist::2                  5779985      1.95%     95.84% # Number of insts issued each cycle (Count)
system.cpu0.numIssuedDist::3                  2115571      0.71%     96.56% # Number of insts issued each cycle (Count)
system.cpu0.numIssuedDist::4                  5340476      1.80%     98.36% # Number of insts issued each cycle (Count)
system.cpu0.numIssuedDist::5                  1675343      0.56%     98.92% # Number of insts issued each cycle (Count)
system.cpu0.numIssuedDist::6                  1836525      0.62%     99.54% # Number of insts issued each cycle (Count)
system.cpu0.numIssuedDist::7                   947872      0.32%     99.86% # Number of insts issued each cycle (Count)
system.cpu0.numIssuedDist::8                   419968      0.14%    100.00% # Number of insts issued each cycle (Count)
system.cpu0.numIssuedDist::overflows                0      0.00%    100.00% # Number of insts issued each cycle (Count)
system.cpu0.numIssuedDist::min_value                0                       # Number of insts issued each cycle (Count)
system.cpu0.numIssuedDist::max_value                8                       # Number of insts issued each cycle (Count)
system.cpu0.numIssuedDist::total            296787696                       # Number of insts issued each cycle (Count)
system.cpu0.statFuBusy::No_OpClass                  0      0.00%      0.00% # attempts to use FU when none available (Count)
system.cpu0.statFuBusy::IntAlu                  15639      2.04%      2.04% # attempts to use FU when none available (Count)
system.cpu0.statFuBusy::IntMult                     0      0.00%      2.04% # attempts to use FU when none available (Count)
system.cpu0.statFuBusy::IntDiv                      0      0.00%      2.04% # attempts to use FU when none available (Count)
system.cpu0.statFuBusy::FloatAdd                    0      0.00%      2.04% # attempts to use FU when none available (Count)
system.cpu0.statFuBusy::FloatCmp                    0      0.00%      2.04% # attempts to use FU when none available (Count)
system.cpu0.statFuBusy::FloatCvt                    0      0.00%      2.04% # attempts to use FU when none available (Count)
system.cpu0.statFuBusy::FloatMult                   0      0.00%      2.04% # attempts to use FU when none available (Count)
system.cpu0.statFuBusy::FloatMultAcc                0      0.00%      2.04% # attempts to use FU when none available (Count)
system.cpu0.statFuBusy::FloatDiv                    0      0.00%      2.04% # attempts to use FU when none available (Count)
system.cpu0.statFuBusy::FloatMisc                   0      0.00%      2.04% # attempts to use FU when none available (Count)
system.cpu0.statFuBusy::FloatSqrt                   0      0.00%      2.04% # attempts to use FU when none available (Count)
system.cpu0.statFuBusy::SimdAdd                     2      0.00%      2.05% # attempts to use FU when none available (Count)
system.cpu0.statFuBusy::SimdAddAcc                  0      0.00%      2.05% # attempts to use FU when none available (Count)
system.cpu0.statFuBusy::SimdAlu                   122      0.02%      2.06% # attempts to use FU when none available (Count)
system.cpu0.statFuBusy::SimdCmp                     0      0.00%      2.06% # attempts to use FU when none available (Count)
system.cpu0.statFuBusy::SimdCvt                   150      0.02%      2.08% # attempts to use FU when none available (Count)
system.cpu0.statFuBusy::SimdMisc                   51      0.01%      2.09% # attempts to use FU when none available (Count)
system.cpu0.statFuBusy::SimdMult                    0      0.00%      2.09% # attempts to use FU when none available (Count)
system.cpu0.statFuBusy::SimdMultAcc                 0      0.00%      2.09% # attempts to use FU when none available (Count)
system.cpu0.statFuBusy::SimdShift                  20      0.00%      2.09% # attempts to use FU when none available (Count)
system.cpu0.statFuBusy::SimdShiftAcc                0      0.00%      2.09% # attempts to use FU when none available (Count)
system.cpu0.statFuBusy::SimdDiv                     0      0.00%      2.09% # attempts to use FU when none available (Count)
system.cpu0.statFuBusy::SimdSqrt                    0      0.00%      2.09% # attempts to use FU when none available (Count)
system.cpu0.statFuBusy::SimdFloatAdd           693316     90.66%     92.75% # attempts to use FU when none available (Count)
system.cpu0.statFuBusy::SimdFloatAlu                0      0.00%     92.75% # attempts to use FU when none available (Count)
system.cpu0.statFuBusy::SimdFloatCmp                0      0.00%     92.75% # attempts to use FU when none available (Count)
system.cpu0.statFuBusy::SimdFloatCvt                0      0.00%     92.75% # attempts to use FU when none available (Count)
system.cpu0.statFuBusy::SimdFloatDiv                0      0.00%     92.75% # attempts to use FU when none available (Count)
system.cpu0.statFuBusy::SimdFloatMisc               0      0.00%     92.75% # attempts to use FU when none available (Count)
system.cpu0.statFuBusy::SimdFloatMult               0      0.00%     92.75% # attempts to use FU when none available (Count)
system.cpu0.statFuBusy::SimdFloatMultAcc            0      0.00%     92.75% # attempts to use FU when none available (Count)
system.cpu0.statFuBusy::SimdFloatSqrt               0      0.00%     92.75% # attempts to use FU when none available (Count)
system.cpu0.statFuBusy::SimdReduceAdd               0      0.00%     92.75% # attempts to use FU when none available (Count)
system.cpu0.statFuBusy::SimdReduceAlu               0      0.00%     92.75% # attempts to use FU when none available (Count)
system.cpu0.statFuBusy::SimdReduceCmp               0      0.00%     92.75% # attempts to use FU when none available (Count)
system.cpu0.statFuBusy::SimdFloatReduceAdd            0      0.00%     92.75% # attempts to use FU when none available (Count)
system.cpu0.statFuBusy::SimdFloatReduceCmp            0      0.00%     92.75% # attempts to use FU when none available (Count)
system.cpu0.statFuBusy::SimdAes                     0      0.00%     92.75% # attempts to use FU when none available (Count)
system.cpu0.statFuBusy::SimdAesMix                  0      0.00%     92.75% # attempts to use FU when none available (Count)
system.cpu0.statFuBusy::SimdSha1Hash                0      0.00%     92.75% # attempts to use FU when none available (Count)
system.cpu0.statFuBusy::SimdSha1Hash2               0      0.00%     92.75% # attempts to use FU when none available (Count)
system.cpu0.statFuBusy::SimdSha256Hash              0      0.00%     92.75% # attempts to use FU when none available (Count)
system.cpu0.statFuBusy::SimdSha256Hash2             0      0.00%     92.75% # attempts to use FU when none available (Count)
system.cpu0.statFuBusy::SimdShaSigma2               0      0.00%     92.75% # attempts to use FU when none available (Count)
system.cpu0.statFuBusy::SimdShaSigma3               0      0.00%     92.75% # attempts to use FU when none available (Count)
system.cpu0.statFuBusy::SimdPredAlu                 0      0.00%     92.75% # attempts to use FU when none available (Count)
system.cpu0.statFuBusy::MemRead                  1951      0.26%     93.00% # attempts to use FU when none available (Count)
system.cpu0.statFuBusy::MemWrite                 1102      0.14%     93.14% # attempts to use FU when none available (Count)
system.cpu0.statFuBusy::FloatMemRead              573      0.07%     93.22% # attempts to use FU when none available (Count)
system.cpu0.statFuBusy::FloatMemWrite           51853      6.78%    100.00% # attempts to use FU when none available (Count)
system.cpu0.statFuBusy::IprAccess                   0      0.00%    100.00% # attempts to use FU when none available (Count)
system.cpu0.statFuBusy::InstPrefetch                0      0.00%    100.00% # attempts to use FU when none available (Count)
system.cpu0.statIssuedInstType_0::No_OpClass        25601      0.03%      0.03% # Number of instructions issued per FU type, per thread (Count)
system.cpu0.statIssuedInstType_0::IntAlu     44392474     58.74%     58.77% # Number of instructions issued per FU type, per thread (Count)
system.cpu0.statIssuedInstType_0::IntMult          263      0.00%     58.77% # Number of instructions issued per FU type, per thread (Count)
system.cpu0.statIssuedInstType_0::IntDiv         2977      0.00%     58.78% # Number of instructions issued per FU type, per thread (Count)
system.cpu0.statIssuedInstType_0::FloatAdd      4756031      6.29%     65.07% # Number of instructions issued per FU type, per thread (Count)
system.cpu0.statIssuedInstType_0::FloatCmp            0      0.00%     65.07% # Number of instructions issued per FU type, per thread (Count)
system.cpu0.statIssuedInstType_0::FloatCvt          484      0.00%     65.07% # Number of instructions issued per FU type, per thread (Count)
system.cpu0.statIssuedInstType_0::FloatMult            0      0.00%     65.07% # Number of instructions issued per FU type, per thread (Count)
system.cpu0.statIssuedInstType_0::FloatMultAcc            0      0.00%     65.07% # Number of instructions issued per FU type, per thread (Count)
system.cpu0.statIssuedInstType_0::FloatDiv            0      0.00%     65.07% # Number of instructions issued per FU type, per thread (Count)
system.cpu0.statIssuedInstType_0::FloatMisc            0      0.00%     65.07% # Number of instructions issued per FU type, per thread (Count)
system.cpu0.statIssuedInstType_0::FloatSqrt            0      0.00%     65.07% # Number of instructions issued per FU type, per thread (Count)
system.cpu0.statIssuedInstType_0::SimdAdd         1602      0.00%     65.07% # Number of instructions issued per FU type, per thread (Count)
system.cpu0.statIssuedInstType_0::SimdAddAcc            0      0.00%     65.07% # Number of instructions issued per FU type, per thread (Count)
system.cpu0.statIssuedInstType_0::SimdAlu        30960      0.04%     65.11% # Number of instructions issued per FU type, per thread (Count)
system.cpu0.statIssuedInstType_0::SimdCmp           70      0.00%     65.11% # Number of instructions issued per FU type, per thread (Count)
system.cpu0.statIssuedInstType_0::SimdCvt         4643      0.01%     65.12% # Number of instructions issued per FU type, per thread (Count)
system.cpu0.statIssuedInstType_0::SimdMisc         3707      0.00%     65.12% # Number of instructions issued per FU type, per thread (Count)
system.cpu0.statIssuedInstType_0::SimdMult            0      0.00%     65.12% # Number of instructions issued per FU type, per thread (Count)
system.cpu0.statIssuedInstType_0::SimdMultAcc            0      0.00%     65.12% # Number of instructions issued per FU type, per thread (Count)
system.cpu0.statIssuedInstType_0::SimdShift         1290      0.00%     65.12% # Number of instructions issued per FU type, per thread (Count)
system.cpu0.statIssuedInstType_0::SimdShiftAcc            0      0.00%     65.12% # Number of instructions issued per FU type, per thread (Count)
system.cpu0.statIssuedInstType_0::SimdDiv            0      0.00%     65.12% # Number of instructions issued per FU type, per thread (Count)
system.cpu0.statIssuedInstType_0::SimdSqrt            0      0.00%     65.12% # Number of instructions issued per FU type, per thread (Count)
system.cpu0.statIssuedInstType_0::SimdFloatAdd      7758895     10.27%     75.39% # Number of instructions issued per FU type, per thread (Count)
system.cpu0.statIssuedInstType_0::SimdFloatAlu            0      0.00%     75.39% # Number of instructions issued per FU type, per thread (Count)
system.cpu0.statIssuedInstType_0::SimdFloatCmp           16      0.00%     75.39% # Number of instructions issued per FU type, per thread (Count)
system.cpu0.statIssuedInstType_0::SimdFloatCvt      3013385      3.99%     79.38% # Number of instructions issued per FU type, per thread (Count)
system.cpu0.statIssuedInstType_0::SimdFloatDiv           11      0.00%     79.38% # Number of instructions issued per FU type, per thread (Count)
system.cpu0.statIssuedInstType_0::SimdFloatMisc            0      0.00%     79.38% # Number of instructions issued per FU type, per thread (Count)
system.cpu0.statIssuedInstType_0::SimdFloatMult      1504485      1.99%     81.37% # Number of instructions issued per FU type, per thread (Count)
system.cpu0.statIssuedInstType_0::SimdFloatMultAcc            0      0.00%     81.37% # Number of instructions issued per FU type, per thread (Count)
system.cpu0.statIssuedInstType_0::SimdFloatSqrt            0      0.00%     81.37% # Number of instructions issued per FU type, per thread (Count)
system.cpu0.statIssuedInstType_0::SimdReduceAdd            0      0.00%     81.37% # Number of instructions issued per FU type, per thread (Count)
system.cpu0.statIssuedInstType_0::SimdReduceAlu            0      0.00%     81.37% # Number of instructions issued per FU type, per thread (Count)
system.cpu0.statIssuedInstType_0::SimdReduceCmp            0      0.00%     81.37% # Number of instructions issued per FU type, per thread (Count)
system.cpu0.statIssuedInstType_0::SimdFloatReduceAdd            0      0.00%     81.37% # Number of instructions issued per FU type, per thread (Count)
system.cpu0.statIssuedInstType_0::SimdFloatReduceCmp            0      0.00%     81.37% # Number of instructions issued per FU type, per thread (Count)
system.cpu0.statIssuedInstType_0::SimdAes            0      0.00%     81.37% # Number of instructions issued per FU type, per thread (Count)
system.cpu0.statIssuedInstType_0::SimdAesMix            0      0.00%     81.37% # Number of instructions issued per FU type, per thread (Count)
system.cpu0.statIssuedInstType_0::SimdSha1Hash            0      0.00%     81.37% # Number of instructions issued per FU type, per thread (Count)
system.cpu0.statIssuedInstType_0::SimdSha1Hash2            0      0.00%     81.37% # Number of instructions issued per FU type, per thread (Count)
system.cpu0.statIssuedInstType_0::SimdSha256Hash            0      0.00%     81.37% # Number of instructions issued per FU type, per thread (Count)
system.cpu0.statIssuedInstType_0::SimdSha256Hash2            0      0.00%     81.37% # Number of instructions issued per FU type, per thread (Count)
system.cpu0.statIssuedInstType_0::SimdShaSigma2            0      0.00%     81.37% # Number of instructions issued per FU type, per thread (Count)
system.cpu0.statIssuedInstType_0::SimdShaSigma3            0      0.00%     81.37% # Number of instructions issued per FU type, per thread (Count)
system.cpu0.statIssuedInstType_0::SimdPredAlu            0      0.00%     81.37% # Number of instructions issued per FU type, per thread (Count)
system.cpu0.statIssuedInstType_0::MemRead       169878      0.22%     81.59% # Number of instructions issued per FU type, per thread (Count)
system.cpu0.statIssuedInstType_0::MemWrite       313631      0.41%     82.01% # Number of instructions issued per FU type, per thread (Count)
system.cpu0.statIssuedInstType_0::FloatMemRead      9843296     13.02%     95.03% # Number of instructions issued per FU type, per thread (Count)
system.cpu0.statIssuedInstType_0::FloatMemWrite      3754881      4.97%    100.00% # Number of instructions issued per FU type, per thread (Count)
system.cpu0.statIssuedInstType_0::IprAccess            0      0.00%    100.00% # Number of instructions issued per FU type, per thread (Count)
system.cpu0.statIssuedInstType_0::InstPrefetch            0      0.00%    100.00% # Number of instructions issued per FU type, per thread (Count)
system.cpu0.statIssuedInstType_0::total      75578580                       # Number of instructions issued per FU type, per thread (Count)
system.cpu0.issueRate                        0.254298                       # Inst issue rate ((Count/Cycle))
system.cpu0.fuBusy                             764779                       # FU busy when requested (Count)
system.cpu0.fuBusyRate                       0.010119                       # FU busy rate (busy events/executed inst) ((Count/Count))
system.cpu0.intInstQueueReads               380599493                       # Number of integer instruction queue reads (Count)
system.cpu0.intInstQueueWrites               42553117                       # Number of integer instruction queue writes (Count)
system.cpu0.intInstQueueWakeupAccesses       41855222                       # Number of integer instruction queue wakeup accesses (Count)
system.cpu0.fpInstQueueReads                 68113431                       # Number of floating instruction queue reads (Count)
system.cpu0.fpInstQueueWrites                33725855                       # Number of floating instruction queue writes (Count)
system.cpu0.fpInstQueueWakeupAccesses        33616911                       # Number of floating instruction queue wakeup accesses (Count)
system.cpu0.vecInstQueueReads                       0                       # Number of vector instruction queue reads (Count)
system.cpu0.vecInstQueueWrites                      0                       # Number of vector instruction queue writes (Count)
system.cpu0.vecInstQueueWakeupAccesses              0                       # Number of vector instruction queue wakeup accesses (Count)
system.cpu0.intAluAccesses                   41888132                       # Number of integer alu accesses (Count)
system.cpu0.fpAluAccesses                    34429626                       # Number of floating point alu accesses (Count)
system.cpu0.vecAluAccesses                          0                       # Number of vector alu accesses (Count)
system.cpu0.numInsts                         75548007                       # Number of executed instructions (Count)
system.cpu0.numLoadInsts                      9999898                       # Number of load instructions executed (Count)
system.cpu0.numSquashedInsts                    30573                       # Number of squashed instructions skipped in execute (Count)
system.cpu0.numSwp                                  0                       # Number of swp insts executed (Count)
system.cpu0.numNop                                  0                       # Number of nop insts executed (Count)
system.cpu0.numRefs                          14067442                       # Number of memory reference insts executed (Count)
system.cpu0.numBranches                       7673449                       # Number of branches executed (Count)
system.cpu0.numStoreInsts                     4067544                       # Number of stores executed (Count)
system.cpu0.numRate                          0.254195                       # Inst execution rate ((Count/Cycle))
system.cpu0.timesIdled                           1784                       # Number of times that the entire CPU went into an idle state and unscheduled itself (Count)
system.cpu0.idleCycles                         417150                       # Total number of cycles that the CPU has spent unscheduled due to idling (Cycle)
system.cpu0.committedInsts                   40542016                       # Number of Instructions Simulated (Count)
system.cpu0.committedOps                     75017410                       # Number of Ops (including micro ops) Simulated (Count)
system.cpu0.cpi                              7.330786                       # CPI: Cycles Per Instruction ((Cycle/Count))
system.cpu0.totalCpi                         7.330786                       # CPI: Total CPI of All Threads ((Cycle/Count))
system.cpu0.ipc                              0.136411                       # IPC: Instructions Per Cycle ((Count/Cycle))
system.cpu0.totalIpc                         0.136411                       # IPC: Total IPC of All Threads ((Count/Cycle))
system.cpu0.intRegfileReads                  62955807                       # Number of integer regfile reads (Count)
system.cpu0.intRegfileWrites                 29229698                       # Number of integer regfile writes (Count)
system.cpu0.fpRegfileReads                   43674903                       # Number of floating regfile reads (Count)
system.cpu0.fpRegfileWrites                  26855304                       # Number of floating regfile writes (Count)
system.cpu0.ccRegfileReads                   44255545                       # number of cc regfile reads (Count)
system.cpu0.ccRegfileWrites                  24465676                       # number of cc regfile writes (Count)
system.cpu0.miscRegfileReads                 31432963                       # number of misc regfile reads (Count)
system.cpu0.miscRegfileWrites                     234                       # number of misc regfile writes (Count)
system.cpu0.MemDepUnit__0.insertedLoads       9966096                       # Number of loads inserted to the mem dependence unit. (Count)
system.cpu0.MemDepUnit__0.insertedStores      4073520                       # Number of stores inserted to the mem dependence unit. (Count)
system.cpu0.MemDepUnit__0.conflictingLoads       254439                       # Number of conflicting loads. (Count)
system.cpu0.MemDepUnit__0.conflictingStores       252879                       # Number of conflicting stores. (Count)
system.cpu0.MemDepUnit__1.insertedLoads             0                       # Number of loads inserted to the mem dependence unit. (Count)
system.cpu0.MemDepUnit__1.insertedStores            0                       # Number of stores inserted to the mem dependence unit. (Count)
system.cpu0.MemDepUnit__1.conflictingLoads            0                       # Number of conflicting loads. (Count)
system.cpu0.MemDepUnit__1.conflictingStores            0                       # Number of conflicting stores. (Count)
system.cpu0.MemDepUnit__2.insertedLoads             0                       # Number of loads inserted to the mem dependence unit. (Count)
system.cpu0.MemDepUnit__2.insertedStores            0                       # Number of stores inserted to the mem dependence unit. (Count)
system.cpu0.MemDepUnit__2.conflictingLoads            0                       # Number of conflicting loads. (Count)
system.cpu0.MemDepUnit__2.conflictingStores            0                       # Number of conflicting stores. (Count)
system.cpu0.MemDepUnit__3.insertedLoads             0                       # Number of loads inserted to the mem dependence unit. (Count)
system.cpu0.MemDepUnit__3.insertedStores            0                       # Number of stores inserted to the mem dependence unit. (Count)
system.cpu0.MemDepUnit__3.conflictingLoads            0                       # Number of conflicting loads. (Count)
system.cpu0.MemDepUnit__3.conflictingStores            0                       # Number of conflicting stores. (Count)
system.cpu0.branchPred.lookups                7726877                       # Number of BP lookups (Count)
system.cpu0.branchPred.condPredicted          7665699                       # Number of conditional branches predicted (Count)
system.cpu0.branchPred.condIncorrect             9014                       # Number of conditional branches incorrect (Count)
system.cpu0.branchPred.BTBLookups             4590975                       # Number of BTB lookups (Count)
system.cpu0.branchPred.BTBHits                4587270                       # Number of BTB hits (Count)
system.cpu0.branchPred.BTBHitRatio           0.999193                       # BTB Hit Ratio (Ratio)
system.cpu0.branchPred.RASUsed                  18680                       # Number of times the RAS was used to get a target. (Count)
system.cpu0.branchPred.RASIncorrect                21                       # Number of incorrect RAS predictions. (Count)
system.cpu0.branchPred.indirectLookups           9908                       # Number of indirect predictor lookups. (Count)
system.cpu0.branchPred.indirectHits              5546                       # Number of indirect target hits. (Count)
system.cpu0.branchPred.indirectMisses            4362                       # Number of indirect misses. (Count)
system.cpu0.branchPred.indirectMispredicted          855                       # Number of mispredicted indirect branches. (Count)
system.cpu0.commit.commitSquashedInsts         522391                       # The number of squashed insts skipped by commit (Count)
system.cpu0.commit.commitNonSpecStalls            786                       # The number of times commit has been forced to stall to communicate backwards (Count)
system.cpu0.commit.branchMispredicts             8620                       # The number of times a branch was mispredicted (Count)
system.cpu0.commit.numCommittedDist::samples    296712216                       # Number of insts commited each cycle (Count)
system.cpu0.commit.numCommittedDist::mean     0.252829                       # Number of insts commited each cycle (Count)
system.cpu0.commit.numCommittedDist::stdev     1.297067                       # Number of insts commited each cycle (Count)
system.cpu0.commit.numCommittedDist::underflows            0      0.00%      0.00% # Number of insts commited each cycle (Count)
system.cpu0.commit.numCommittedDist::0      281713780     94.95%     94.95% # Number of insts commited each cycle (Count)
system.cpu0.commit.numCommittedDist::1        3635507      1.23%     96.17% # Number of insts commited each cycle (Count)
system.cpu0.commit.numCommittedDist::2        1058990      0.36%     96.53% # Number of insts commited each cycle (Count)
system.cpu0.commit.numCommittedDist::3        1968344      0.66%     97.19% # Number of insts commited each cycle (Count)
system.cpu0.commit.numCommittedDist::4         712767      0.24%     97.43% # Number of insts commited each cycle (Count)
system.cpu0.commit.numCommittedDist::5          32027      0.01%     97.44% # Number of insts commited each cycle (Count)
system.cpu0.commit.numCommittedDist::6         114095      0.04%     97.48% # Number of insts commited each cycle (Count)
system.cpu0.commit.numCommittedDist::7         150530      0.05%     97.53% # Number of insts commited each cycle (Count)
system.cpu0.commit.numCommittedDist::8        7326176      2.47%    100.00% # Number of insts commited each cycle (Count)
system.cpu0.commit.numCommittedDist::overflows            0      0.00%    100.00% # Number of insts commited each cycle (Count)
system.cpu0.commit.numCommittedDist::min_value            0                       # Number of insts commited each cycle (Count)
system.cpu0.commit.numCommittedDist::max_value            8                       # Number of insts commited each cycle (Count)
system.cpu0.commit.numCommittedDist::total    296712216                       # Number of insts commited each cycle (Count)
system.cpu0.commit.instsCommitted            40542016                       # Number of instructions committed (Count)
system.cpu0.commit.opsCommitted              75017410                       # Number of ops (including micro ops) committed (Count)
system.cpu0.commit.memRefs                   13924677                       # Number of memory references committed (Count)
system.cpu0.commit.loads                      9876153                       # Number of loads committed (Count)
system.cpu0.commit.amos                             0                       # Number of atomic instructions committed (Count)
system.cpu0.commit.membars                        368                       # Number of memory barriers committed (Count)
system.cpu0.commit.branches                   7626331                       # Number of branches committed (Count)
system.cpu0.commit.vectorInstructions               0                       # Number of committed Vector instructions. (Count)
system.cpu0.commit.floating                  33562373                       # Number of committed floating point instructions. (Count)
system.cpu0.commit.integer                   54951199                       # Number of committed integer instructions. (Count)
system.cpu0.commit.functionCalls                 7649                       # Number of function calls committed. (Count)
system.cpu0.commit.committedInstType_0::No_OpClass        11644      0.02%      0.02% # Class of committed instruction (Count)
system.cpu0.commit.committedInstType_0::IntAlu     44041547     58.71%     58.72% # Class of committed instruction (Count)
system.cpu0.commit.committedInstType_0::IntMult          246      0.00%     58.72% # Class of committed instruction (Count)
system.cpu0.commit.committedInstType_0::IntDiv         2691      0.00%     58.73% # Class of committed instruction (Count)
system.cpu0.commit.committedInstType_0::FloatAdd      4753179      6.34%     65.06% # Class of committed instruction (Count)
system.cpu0.commit.committedInstType_0::FloatCmp            0      0.00%     65.06% # Class of committed instruction (Count)
system.cpu0.commit.committedInstType_0::FloatCvt          416      0.00%     65.06% # Class of committed instruction (Count)
system.cpu0.commit.committedInstType_0::FloatMult            0      0.00%     65.06% # Class of committed instruction (Count)
system.cpu0.commit.committedInstType_0::FloatMultAcc            0      0.00%     65.06% # Class of committed instruction (Count)
system.cpu0.commit.committedInstType_0::FloatDiv            0      0.00%     65.06% # Class of committed instruction (Count)
system.cpu0.commit.committedInstType_0::FloatMisc            0      0.00%     65.06% # Class of committed instruction (Count)
system.cpu0.commit.committedInstType_0::FloatSqrt            0      0.00%     65.06% # Class of committed instruction (Count)
system.cpu0.commit.committedInstType_0::SimdAdd         1098      0.00%     65.07% # Class of committed instruction (Count)
system.cpu0.commit.committedInstType_0::SimdAddAcc            0      0.00%     65.07% # Class of committed instruction (Count)
system.cpu0.commit.committedInstType_0::SimdAlu        11722      0.02%     65.08% # Class of committed instruction (Count)
system.cpu0.commit.committedInstType_0::SimdCmp           66      0.00%     65.08% # Class of committed instruction (Count)
system.cpu0.commit.committedInstType_0::SimdCvt         3104      0.00%     65.09% # Class of committed instruction (Count)
system.cpu0.commit.committedInstType_0::SimdMisc         3048      0.00%     65.09% # Class of committed instruction (Count)
system.cpu0.commit.committedInstType_0::SimdMult            0      0.00%     65.09% # Class of committed instruction (Count)
system.cpu0.commit.committedInstType_0::SimdMultAcc            0      0.00%     65.09% # Class of committed instruction (Count)
system.cpu0.commit.committedInstType_0::SimdShift          507      0.00%     65.09% # Class of committed instruction (Count)
system.cpu0.commit.committedInstType_0::SimdShiftAcc            0      0.00%     65.09% # Class of committed instruction (Count)
system.cpu0.commit.committedInstType_0::SimdDiv            0      0.00%     65.09% # Class of committed instruction (Count)
system.cpu0.commit.committedInstType_0::SimdSqrt            0      0.00%     65.09% # Class of committed instruction (Count)
system.cpu0.commit.committedInstType_0::SimdFloatAdd      7754458     10.34%     75.43% # Class of committed instruction (Count)
system.cpu0.commit.committedInstType_0::SimdFloatAlu            0      0.00%     75.43% # Class of committed instruction (Count)
system.cpu0.commit.committedInstType_0::SimdFloatCmp           16      0.00%     75.43% # Class of committed instruction (Count)
system.cpu0.commit.committedInstType_0::SimdFloatCvt      3006720      4.01%     79.44% # Class of committed instruction (Count)
system.cpu0.commit.committedInstType_0::SimdFloatDiv           11      0.00%     79.44% # Class of committed instruction (Count)
system.cpu0.commit.committedInstType_0::SimdFloatMisc            0      0.00%     79.44% # Class of committed instruction (Count)
system.cpu0.commit.committedInstType_0::SimdFloatMult      1502260      2.00%     81.44% # Class of committed instruction (Count)
system.cpu0.commit.committedInstType_0::SimdFloatMultAcc            0      0.00%     81.44% # Class of committed instruction (Count)
system.cpu0.commit.committedInstType_0::SimdFloatSqrt            0      0.00%     81.44% # Class of committed instruction (Count)
system.cpu0.commit.committedInstType_0::SimdReduceAdd            0      0.00%     81.44% # Class of committed instruction (Count)
system.cpu0.commit.committedInstType_0::SimdReduceAlu            0      0.00%     81.44% # Class of committed instruction (Count)
system.cpu0.commit.committedInstType_0::SimdReduceCmp            0      0.00%     81.44% # Class of committed instruction (Count)
system.cpu0.commit.committedInstType_0::SimdFloatReduceAdd            0      0.00%     81.44% # Class of committed instruction (Count)
system.cpu0.commit.committedInstType_0::SimdFloatReduceCmp            0      0.00%     81.44% # Class of committed instruction (Count)
system.cpu0.commit.committedInstType_0::SimdAes            0      0.00%     81.44% # Class of committed instruction (Count)
system.cpu0.commit.committedInstType_0::SimdAesMix            0      0.00%     81.44% # Class of committed instruction (Count)
system.cpu0.commit.committedInstType_0::SimdSha1Hash            0      0.00%     81.44% # Class of committed instruction (Count)
system.cpu0.commit.committedInstType_0::SimdSha1Hash2            0      0.00%     81.44% # Class of committed instruction (Count)
system.cpu0.commit.committedInstType_0::SimdSha256Hash            0      0.00%     81.44% # Class of committed instruction (Count)
system.cpu0.commit.committedInstType_0::SimdSha256Hash2            0      0.00%     81.44% # Class of committed instruction (Count)
system.cpu0.commit.committedInstType_0::SimdShaSigma2            0      0.00%     81.44% # Class of committed instruction (Count)
system.cpu0.commit.committedInstType_0::SimdShaSigma3            0      0.00%     81.44% # Class of committed instruction (Count)
system.cpu0.commit.committedInstType_0::SimdPredAlu            0      0.00%     81.44% # Class of committed instruction (Count)
system.cpu0.commit.committedInstType_0::MemRead       109862      0.15%     81.58% # Class of committed instruction (Count)
system.cpu0.commit.committedInstType_0::MemWrite       294211      0.39%     81.98% # Class of committed instruction (Count)
system.cpu0.commit.committedInstType_0::FloatMemRead      9766291     13.02%     95.00% # Class of committed instruction (Count)
system.cpu0.commit.committedInstType_0::FloatMemWrite      3754313      5.00%    100.00% # Class of committed instruction (Count)
system.cpu0.commit.committedInstType_0::IprAccess            0      0.00%    100.00% # Class of committed instruction (Count)
system.cpu0.commit.committedInstType_0::InstPrefetch            0      0.00%    100.00% # Class of committed instruction (Count)
system.cpu0.commit.committedInstType_0::total     75017410                       # Class of committed instruction (Count)
system.cpu0.commit.commitEligibleSamples      7326176                       # number cycles where commit BW limit reached (Cycle)
system.cpu0.dcache.demandHits::cpu0.data      8095275                       # number of demand (read+write) hits (Count)
system.cpu0.dcache.demandHits::total          8095275                       # number of demand (read+write) hits (Count)
system.cpu0.dcache.overallHits::cpu0.data      8095275                       # number of overall hits (Count)
system.cpu0.dcache.overallHits::total         8095275                       # number of overall hits (Count)
system.cpu0.dcache.demandMisses::cpu0.data      5880657                       # number of demand (read+write) misses (Count)
system.cpu0.dcache.demandMisses::total        5880657                       # number of demand (read+write) misses (Count)
system.cpu0.dcache.overallMisses::cpu0.data      5880657                       # number of overall misses (Count)
system.cpu0.dcache.overallMisses::total       5880657                       # number of overall misses (Count)
system.cpu0.dcache.demandMissLatency::cpu0.data 320751952995                       # number of demand (read+write) miss ticks (Tick)
system.cpu0.dcache.demandMissLatency::total 320751952995                       # number of demand (read+write) miss ticks (Tick)
system.cpu0.dcache.overallMissLatency::cpu0.data 320751952995                       # number of overall miss ticks (Tick)
system.cpu0.dcache.overallMissLatency::total 320751952995                       # number of overall miss ticks (Tick)
system.cpu0.dcache.demandAccesses::cpu0.data     13975932                       # number of demand (read+write) accesses (Count)
system.cpu0.dcache.demandAccesses::total     13975932                       # number of demand (read+write) accesses (Count)
system.cpu0.dcache.overallAccesses::cpu0.data     13975932                       # number of overall (read+write) accesses (Count)
system.cpu0.dcache.overallAccesses::total     13975932                       # number of overall (read+write) accesses (Count)
system.cpu0.dcache.demandMissRate::cpu0.data     0.420770                       # miss rate for demand accesses (Ratio)
system.cpu0.dcache.demandMissRate::total     0.420770                       # miss rate for demand accesses (Ratio)
system.cpu0.dcache.overallMissRate::cpu0.data     0.420770                       # miss rate for overall accesses (Ratio)
system.cpu0.dcache.overallMissRate::total     0.420770                       # miss rate for overall accesses (Ratio)
system.cpu0.dcache.demandAvgMissLatency::cpu0.data 54543.557462                       # average overall miss latency in ticks ((Tick/Count))
system.cpu0.dcache.demandAvgMissLatency::total 54543.557462                       # average overall miss latency in ticks ((Tick/Count))
system.cpu0.dcache.overallAvgMissLatency::cpu0.data 54543.557462                       # average overall miss latency ((Tick/Count))
system.cpu0.dcache.overallAvgMissLatency::total 54543.557462                       # average overall miss latency ((Tick/Count))
system.cpu0.dcache.blockedCycles::no_mshrs     15936566                       # number of cycles access was blocked (Cycle)
system.cpu0.dcache.blockedCycles::no_targets          223                       # number of cycles access was blocked (Cycle)
system.cpu0.dcache.blockedCauses::no_mshrs       198602                       # number of times access was blocked (Count)
system.cpu0.dcache.blockedCauses::no_targets            4                       # number of times access was blocked (Count)
system.cpu0.dcache.avgBlocked::no_mshrs     80.243734                       # average number of cycles each access was blocked ((Cycle/Count))
system.cpu0.dcache.avgBlocked::no_targets    55.750000                       # average number of cycles each access was blocked ((Cycle/Count))
system.cpu0.dcache.writebacks::writebacks       502015                       # number of writebacks (Count)
system.cpu0.dcache.writebacks::total           502015                       # number of writebacks (Count)
system.cpu0.dcache.demandMshrHits::cpu0.data      4437572                       # number of demand (read+write) MSHR hits (Count)
system.cpu0.dcache.demandMshrHits::total      4437572                       # number of demand (read+write) MSHR hits (Count)
system.cpu0.dcache.overallMshrHits::cpu0.data      4437572                       # number of overall MSHR hits (Count)
system.cpu0.dcache.overallMshrHits::total      4437572                       # number of overall MSHR hits (Count)
system.cpu0.dcache.demandMshrMisses::cpu0.data      1443085                       # number of demand (read+write) MSHR misses (Count)
system.cpu0.dcache.demandMshrMisses::total      1443085                       # number of demand (read+write) MSHR misses (Count)
system.cpu0.dcache.overallMshrMisses::cpu0.data      1443085                       # number of overall MSHR misses (Count)
system.cpu0.dcache.overallMshrMisses::total      1443085                       # number of overall MSHR misses (Count)
system.cpu0.dcache.demandMshrMissLatency::cpu0.data 165950566995                       # number of demand (read+write) MSHR miss ticks (Tick)
system.cpu0.dcache.demandMshrMissLatency::total 165950566995                       # number of demand (read+write) MSHR miss ticks (Tick)
system.cpu0.dcache.overallMshrMissLatency::cpu0.data 165950566995                       # number of overall MSHR miss ticks (Tick)
system.cpu0.dcache.overallMshrMissLatency::total 165950566995                       # number of overall MSHR miss ticks (Tick)
system.cpu0.dcache.demandMshrMissRate::cpu0.data     0.103255                       # mshr miss ratio for demand accesses (Ratio)
system.cpu0.dcache.demandMshrMissRate::total     0.103255                       # mshr miss ratio for demand accesses (Ratio)
system.cpu0.dcache.overallMshrMissRate::cpu0.data     0.103255                       # mshr miss ratio for overall accesses (Ratio)
system.cpu0.dcache.overallMshrMissRate::total     0.103255                       # mshr miss ratio for overall accesses (Ratio)
system.cpu0.dcache.demandAvgMshrMissLatency::cpu0.data 114997.084021                       # average overall mshr miss latency ((Tick/Count))
system.cpu0.dcache.demandAvgMshrMissLatency::total 114997.084021                       # average overall mshr miss latency ((Tick/Count))
system.cpu0.dcache.overallAvgMshrMissLatency::cpu0.data 114997.084021                       # average overall mshr miss latency ((Tick/Count))
system.cpu0.dcache.overallAvgMshrMissLatency::total 114997.084021                       # average overall mshr miss latency ((Tick/Count))
system.cpu0.dcache.replacements               1441930                       # number of replacements (Count)
system.cpu0.dcache.LockedRMWReadReq.hits::cpu0.data          150                       # number of LockedRMWReadReq hits (Count)
system.cpu0.dcache.LockedRMWReadReq.hits::total          150                       # number of LockedRMWReadReq hits (Count)
system.cpu0.dcache.LockedRMWReadReq.misses::cpu0.data           34                       # number of LockedRMWReadReq misses (Count)
system.cpu0.dcache.LockedRMWReadReq.misses::total           34                       # number of LockedRMWReadReq misses (Count)
system.cpu0.dcache.LockedRMWReadReq.missLatency::cpu0.data        80500                       # number of LockedRMWReadReq miss ticks (Tick)
system.cpu0.dcache.LockedRMWReadReq.missLatency::total        80500                       # number of LockedRMWReadReq miss ticks (Tick)
system.cpu0.dcache.LockedRMWReadReq.accesses::cpu0.data          184                       # number of LockedRMWReadReq accesses(hits+misses) (Count)
system.cpu0.dcache.LockedRMWReadReq.accesses::total          184                       # number of LockedRMWReadReq accesses(hits+misses) (Count)
system.cpu0.dcache.LockedRMWReadReq.missRate::cpu0.data     0.184783                       # miss rate for LockedRMWReadReq accesses (Ratio)
system.cpu0.dcache.LockedRMWReadReq.missRate::total     0.184783                       # miss rate for LockedRMWReadReq accesses (Ratio)
system.cpu0.dcache.LockedRMWReadReq.avgMissLatency::cpu0.data  2367.647059                       # average LockedRMWReadReq miss latency ((Tick/Count))
system.cpu0.dcache.LockedRMWReadReq.avgMissLatency::total  2367.647059                       # average LockedRMWReadReq miss latency ((Tick/Count))
system.cpu0.dcache.LockedRMWReadReq.mshrMisses::cpu0.data           34                       # number of LockedRMWReadReq MSHR misses (Count)
system.cpu0.dcache.LockedRMWReadReq.mshrMisses::total           34                       # number of LockedRMWReadReq MSHR misses (Count)
system.cpu0.dcache.LockedRMWReadReq.mshrMissLatency::cpu0.data       526750                       # number of LockedRMWReadReq MSHR miss ticks (Tick)
system.cpu0.dcache.LockedRMWReadReq.mshrMissLatency::total       526750                       # number of LockedRMWReadReq MSHR miss ticks (Tick)
system.cpu0.dcache.LockedRMWReadReq.mshrMissRate::cpu0.data     0.184783                       # mshr miss rate for LockedRMWReadReq accesses (Ratio)
system.cpu0.dcache.LockedRMWReadReq.mshrMissRate::total     0.184783                       # mshr miss rate for LockedRMWReadReq accesses (Ratio)
system.cpu0.dcache.LockedRMWReadReq.avgMshrMissLatency::cpu0.data 15492.647059                       # average LockedRMWReadReq mshr miss latency ((Tick/Count))
system.cpu0.dcache.LockedRMWReadReq.avgMshrMissLatency::total 15492.647059                       # average LockedRMWReadReq mshr miss latency ((Tick/Count))
system.cpu0.dcache.LockedRMWWriteReq.hits::cpu0.data          184                       # number of LockedRMWWriteReq hits (Count)
system.cpu0.dcache.LockedRMWWriteReq.hits::total          184                       # number of LockedRMWWriteReq hits (Count)
system.cpu0.dcache.LockedRMWWriteReq.accesses::cpu0.data          184                       # number of LockedRMWWriteReq accesses(hits+misses) (Count)
system.cpu0.dcache.LockedRMWWriteReq.accesses::total          184                       # number of LockedRMWWriteReq accesses(hits+misses) (Count)
system.cpu0.dcache.ReadReq.hits::cpu0.data      4517112                       # number of ReadReq hits (Count)
system.cpu0.dcache.ReadReq.hits::total        4517112                       # number of ReadReq hits (Count)
system.cpu0.dcache.ReadReq.misses::cpu0.data      5410459                       # number of ReadReq misses (Count)
system.cpu0.dcache.ReadReq.misses::total      5410459                       # number of ReadReq misses (Count)
system.cpu0.dcache.ReadReq.missLatency::cpu0.data 264331326250                       # number of ReadReq miss ticks (Tick)
system.cpu0.dcache.ReadReq.missLatency::total 264331326250                       # number of ReadReq miss ticks (Tick)
system.cpu0.dcache.ReadReq.accesses::cpu0.data      9927571                       # number of ReadReq accesses(hits+misses) (Count)
system.cpu0.dcache.ReadReq.accesses::total      9927571                       # number of ReadReq accesses(hits+misses) (Count)
system.cpu0.dcache.ReadReq.missRate::cpu0.data     0.544993                       # miss rate for ReadReq accesses (Ratio)
system.cpu0.dcache.ReadReq.missRate::total     0.544993                       # miss rate for ReadReq accesses (Ratio)
system.cpu0.dcache.ReadReq.avgMissLatency::cpu0.data 48855.619505                       # average ReadReq miss latency ((Tick/Count))
system.cpu0.dcache.ReadReq.avgMissLatency::total 48855.619505                       # average ReadReq miss latency ((Tick/Count))
system.cpu0.dcache.ReadReq.mshrHits::cpu0.data      4437550                       # number of ReadReq MSHR hits (Count)
system.cpu0.dcache.ReadReq.mshrHits::total      4437550                       # number of ReadReq MSHR hits (Count)
system.cpu0.dcache.ReadReq.mshrMisses::cpu0.data       972909                       # number of ReadReq MSHR misses (Count)
system.cpu0.dcache.ReadReq.mshrMisses::total       972909                       # number of ReadReq MSHR misses (Count)
system.cpu0.dcache.ReadReq.mshrMissLatency::cpu0.data 109766937250                       # number of ReadReq MSHR miss ticks (Tick)
system.cpu0.dcache.ReadReq.mshrMissLatency::total 109766937250                       # number of ReadReq MSHR miss ticks (Tick)
system.cpu0.dcache.ReadReq.mshrMissRate::cpu0.data     0.098001                       # mshr miss rate for ReadReq accesses (Ratio)
system.cpu0.dcache.ReadReq.mshrMissRate::total     0.098001                       # mshr miss rate for ReadReq accesses (Ratio)
system.cpu0.dcache.ReadReq.avgMshrMissLatency::cpu0.data 112823.436981                       # average ReadReq mshr miss latency ((Tick/Count))
system.cpu0.dcache.ReadReq.avgMshrMissLatency::total 112823.436981                       # average ReadReq mshr miss latency ((Tick/Count))
system.cpu0.dcache.WriteReq.hits::cpu0.data      3578163                       # number of WriteReq hits (Count)
system.cpu0.dcache.WriteReq.hits::total       3578163                       # number of WriteReq hits (Count)
system.cpu0.dcache.WriteReq.misses::cpu0.data       470198                       # number of WriteReq misses (Count)
system.cpu0.dcache.WriteReq.misses::total       470198                       # number of WriteReq misses (Count)
system.cpu0.dcache.WriteReq.missLatency::cpu0.data  56420626745                       # number of WriteReq miss ticks (Tick)
system.cpu0.dcache.WriteReq.missLatency::total  56420626745                       # number of WriteReq miss ticks (Tick)
system.cpu0.dcache.WriteReq.accesses::cpu0.data      4048361                       # number of WriteReq accesses(hits+misses) (Count)
system.cpu0.dcache.WriteReq.accesses::total      4048361                       # number of WriteReq accesses(hits+misses) (Count)
system.cpu0.dcache.WriteReq.missRate::cpu0.data     0.116145                       # miss rate for WriteReq accesses (Ratio)
system.cpu0.dcache.WriteReq.missRate::total     0.116145                       # miss rate for WriteReq accesses (Ratio)
system.cpu0.dcache.WriteReq.avgMissLatency::cpu0.data 119993.336307                       # average WriteReq miss latency ((Tick/Count))
system.cpu0.dcache.WriteReq.avgMissLatency::total 119993.336307                       # average WriteReq miss latency ((Tick/Count))
system.cpu0.dcache.WriteReq.mshrHits::cpu0.data           22                       # number of WriteReq MSHR hits (Count)
system.cpu0.dcache.WriteReq.mshrHits::total           22                       # number of WriteReq MSHR hits (Count)
system.cpu0.dcache.WriteReq.mshrMisses::cpu0.data       470176                       # number of WriteReq MSHR misses (Count)
system.cpu0.dcache.WriteReq.mshrMisses::total       470176                       # number of WriteReq MSHR misses (Count)
system.cpu0.dcache.WriteReq.mshrMissLatency::cpu0.data  56183629745                       # number of WriteReq MSHR miss ticks (Tick)
system.cpu0.dcache.WriteReq.mshrMissLatency::total  56183629745                       # number of WriteReq MSHR miss ticks (Tick)
system.cpu0.dcache.WriteReq.mshrMissRate::cpu0.data     0.116140                       # mshr miss rate for WriteReq accesses (Ratio)
system.cpu0.dcache.WriteReq.mshrMissRate::total     0.116140                       # mshr miss rate for WriteReq accesses (Ratio)
system.cpu0.dcache.WriteReq.avgMshrMissLatency::cpu0.data 119494.890732                       # average WriteReq mshr miss latency ((Tick/Count))
system.cpu0.dcache.WriteReq.avgMshrMissLatency::total 119494.890732                       # average WriteReq mshr miss latency ((Tick/Count))
system.cpu0.dcache.power_state.pwrStateResidencyTicks::UNDEFINED  74301211250                       # Cumulative time (in ticks) in various power states (Tick)
system.cpu0.dcache.tags.tagsInUse         1023.159623                       # Average ticks per tags in use ((Tick/Count))
system.cpu0.dcache.tags.totalRefs             9538730                       # Total number of references to valid blocks. (Count)
system.cpu0.dcache.tags.sampledRefs           1443046                       # Sample count of references to valid blocks. (Count)
system.cpu0.dcache.tags.avgRefs              6.610136                       # Average number of references to valid blocks. ((Count/Count))
system.cpu0.dcache.tags.warmupTick             170250                       # The tick when the warmup percentage was hit. (Tick)
system.cpu0.dcache.tags.occupancies::cpu0.data  1023.159623                       # Average occupied blocks per tick, per requestor ((Count/Tick))
system.cpu0.dcache.tags.avgOccs::cpu0.data     0.999179                       # Average percentage of cache occupancy ((Ratio/Tick))
system.cpu0.dcache.tags.avgOccs::total       0.999179                       # Average percentage of cache occupancy ((Ratio/Tick))
system.cpu0.dcache.tags.occupanciesTaskId::1024         1024                       # Occupied blocks per task id (Count)
system.cpu0.dcache.tags.ageTaskId_1024::0          122                       # Occupied blocks per task id, per block age (Count)
system.cpu0.dcache.tags.ageTaskId_1024::1          901                       # Occupied blocks per task id, per block age (Count)
system.cpu0.dcache.tags.ageTaskId_1024::4            1                       # Occupied blocks per task id, per block age (Count)
system.cpu0.dcache.tags.ratioOccsTaskId::1024            1                       # Ratio of occupied blocks and all blocks, per task id (Ratio)
system.cpu0.dcache.tags.tagAccesses          29395646                       # Number of tag accesses (Count)
system.cpu0.dcache.tags.dataAccesses         29395646                       # Number of data accesses (Count)
system.cpu0.dcache.tags.power_state.pwrStateResidencyTicks::UNDEFINED  74301211250                       # Cumulative time (in ticks) in various power states (Tick)
system.cpu0.decode.idleCycles                 3639212                       # Number of cycles decode is idle (Cycle)
system.cpu0.decode.blockedCycles            282714782                       # Number of cycles decode is blocked (Cycle)
system.cpu0.decode.runCycles                  7433299                       # Number of cycles decode is running (Cycle)
system.cpu0.decode.unblockCycles              2988975                       # Number of cycles decode is unblocking (Cycle)
system.cpu0.decode.squashCycles                 11428                       # Number of cycles decode is squashing (Cycle)
system.cpu0.decode.branchResolved             4584005                       # Number of times decode resolved a branch (Count)
system.cpu0.decode.branchMispred                 1206                       # Number of times decode detected a branch misprediction (Count)
system.cpu0.decode.decodedInsts              75763433                       # Number of instructions handled by decode (Count)
system.cpu0.decode.squashedInsts                 5685                       # Number of squashed instructions handled by decode (Count)
system.cpu0.dtb_walker_cache.blockedCycles::no_mshrs            0                       # number of cycles access was blocked (Cycle)
system.cpu0.dtb_walker_cache.blockedCycles::no_targets            0                       # number of cycles access was blocked (Cycle)
system.cpu0.dtb_walker_cache.blockedCauses::no_mshrs            0                       # number of times access was blocked (Count)
system.cpu0.dtb_walker_cache.blockedCauses::no_targets            0                       # number of times access was blocked (Count)
system.cpu0.dtb_walker_cache.avgBlocked::no_mshrs          nan                       # average number of cycles each access was blocked ((Cycle/Count))
system.cpu0.dtb_walker_cache.avgBlocked::no_targets          nan                       # average number of cycles each access was blocked ((Cycle/Count))
system.cpu0.dtb_walker_cache.replacements            0                       # number of replacements (Count)
system.cpu0.dtb_walker_cache.power_state.pwrStateResidencyTicks::UNDEFINED  74301211250                       # Cumulative time (in ticks) in various power states (Tick)
system.cpu0.dtb_walker_cache.tags.tagsInUse            0                       # Average ticks per tags in use ((Tick/Count))
system.cpu0.dtb_walker_cache.tags.totalRefs            0                       # Total number of references to valid blocks. (Count)
system.cpu0.dtb_walker_cache.tags.sampledRefs            0                       # Sample count of references to valid blocks. (Count)
system.cpu0.dtb_walker_cache.tags.avgRefs          nan                       # Average number of references to valid blocks. ((Count/Count))
system.cpu0.dtb_walker_cache.tags.warmupTick            0                       # The tick when the warmup percentage was hit. (Tick)
system.cpu0.dtb_walker_cache.tags.tagAccesses            0                       # Number of tag accesses (Count)
system.cpu0.dtb_walker_cache.tags.dataAccesses            0                       # Number of data accesses (Count)
system.cpu0.dtb_walker_cache.tags.power_state.pwrStateResidencyTicks::UNDEFINED  74301211250                       # Cumulative time (in ticks) in various power states (Tick)
system.cpu0.fetch.icacheStallCycles           4786356                       # Number of cycles fetch is stalled on an Icache miss (Cycle)
system.cpu0.fetch.insts                      40990537                       # Number of instructions fetch has processed (Count)
system.cpu0.fetch.branches                    7726877                       # Number of branches that fetch encountered (Count)
system.cpu0.fetch.predictedBranches           4611496                       # Number of branches that fetch has predicted taken (Count)
system.cpu0.fetch.cycles                    291982040                       # Number of cycles fetch has run and was not squashing or blocked (Cycle)
system.cpu0.fetch.squashCycles                  25222                       # Number of cycles fetch has spent squashing (Cycle)
system.cpu0.fetch.miscStallCycles                 841                       # Number of cycles fetch has spent waiting on interrupts, or bad addresses, or out of MSHRs (Cycle)
system.cpu0.fetch.pendingTrapStallCycles         5741                       # Number of stall cycles due to pending traps (Cycle)
system.cpu0.fetch.icacheWaitRetryStallCycles          107                       # Number of stall cycles due to full MSHR (Cycle)
system.cpu0.fetch.cacheLines                  4624574                       # Number of cache lines fetched (Count)
system.cpu0.fetch.icacheSquashes                 3415                       # Number of outstanding Icache misses that were squashed (Count)
system.cpu0.fetch.nisnDist::samples         296787696                       # Number of instructions fetched each cycle (Total) (Count)
system.cpu0.fetch.nisnDist::mean             0.255684                       # Number of instructions fetched each cycle (Total) (Count)
system.cpu0.fetch.nisnDist::stdev            1.293380                       # Number of instructions fetched each cycle (Total) (Count)
system.cpu0.fetch.nisnDist::underflows              0      0.00%      0.00% # Number of instructions fetched each cycle (Total) (Count)
system.cpu0.fetch.nisnDist::0               283054373     95.37%     95.37% # Number of instructions fetched each cycle (Total) (Count)
system.cpu0.fetch.nisnDist::1                 1166427      0.39%     95.77% # Number of instructions fetched each cycle (Total) (Count)
system.cpu0.fetch.nisnDist::2                  899715      0.30%     96.07% # Number of instructions fetched each cycle (Total) (Count)
system.cpu0.fetch.nisnDist::3                 2374093      0.80%     96.87% # Number of instructions fetched each cycle (Total) (Count)
system.cpu0.fetch.nisnDist::4                 1833658      0.62%     97.49% # Number of instructions fetched each cycle (Total) (Count)
system.cpu0.fetch.nisnDist::5                  130818      0.04%     97.53% # Number of instructions fetched each cycle (Total) (Count)
system.cpu0.fetch.nisnDist::6                  216926      0.07%     97.60% # Number of instructions fetched each cycle (Total) (Count)
system.cpu0.fetch.nisnDist::7                  388001      0.13%     97.73% # Number of instructions fetched each cycle (Total) (Count)
system.cpu0.fetch.nisnDist::8                 6723685      2.27%    100.00% # Number of instructions fetched each cycle (Total) (Count)
system.cpu0.fetch.nisnDist::overflows               0      0.00%    100.00% # Number of instructions fetched each cycle (Total) (Count)
system.cpu0.fetch.nisnDist::min_value               0                       # Number of instructions fetched each cycle (Total) (Count)
system.cpu0.fetch.nisnDist::max_value               8                       # Number of instructions fetched each cycle (Total) (Count)
system.cpu0.fetch.nisnDist::total           296787696                       # Number of instructions fetched each cycle (Total) (Count)
system.cpu0.fetch.branchRate                 0.025998                       # Number of branch fetches per cycle (Ratio)
system.cpu0.fetch.rate                       0.137920                       # Number of inst fetches per cycle ((Count/Cycle))
system.cpu0.icache.demandHits::cpu0.inst      4620647                       # number of demand (read+write) hits (Count)
system.cpu0.icache.demandHits::total          4620647                       # number of demand (read+write) hits (Count)
system.cpu0.icache.overallHits::cpu0.inst      4620647                       # number of overall hits (Count)
system.cpu0.icache.overallHits::total         4620647                       # number of overall hits (Count)
system.cpu0.icache.demandMisses::cpu0.inst         3927                       # number of demand (read+write) misses (Count)
system.cpu0.icache.demandMisses::total           3927                       # number of demand (read+write) misses (Count)
system.cpu0.icache.overallMisses::cpu0.inst         3927                       # number of overall misses (Count)
system.cpu0.icache.overallMisses::total          3927                       # number of overall misses (Count)
system.cpu0.icache.demandMissLatency::cpu0.inst    260845499                       # number of demand (read+write) miss ticks (Tick)
system.cpu0.icache.demandMissLatency::total    260845499                       # number of demand (read+write) miss ticks (Tick)
system.cpu0.icache.overallMissLatency::cpu0.inst    260845499                       # number of overall miss ticks (Tick)
system.cpu0.icache.overallMissLatency::total    260845499                       # number of overall miss ticks (Tick)
system.cpu0.icache.demandAccesses::cpu0.inst      4624574                       # number of demand (read+write) accesses (Count)
system.cpu0.icache.demandAccesses::total      4624574                       # number of demand (read+write) accesses (Count)
system.cpu0.icache.overallAccesses::cpu0.inst      4624574                       # number of overall (read+write) accesses (Count)
system.cpu0.icache.overallAccesses::total      4624574                       # number of overall (read+write) accesses (Count)
system.cpu0.icache.demandMissRate::cpu0.inst     0.000849                       # miss rate for demand accesses (Ratio)
system.cpu0.icache.demandMissRate::total     0.000849                       # miss rate for demand accesses (Ratio)
system.cpu0.icache.overallMissRate::cpu0.inst     0.000849                       # miss rate for overall accesses (Ratio)
system.cpu0.icache.overallMissRate::total     0.000849                       # miss rate for overall accesses (Ratio)
system.cpu0.icache.demandAvgMissLatency::cpu0.inst 66423.605551                       # average overall miss latency in ticks ((Tick/Count))
system.cpu0.icache.demandAvgMissLatency::total 66423.605551                       # average overall miss latency in ticks ((Tick/Count))
system.cpu0.icache.overallAvgMissLatency::cpu0.inst 66423.605551                       # average overall miss latency ((Tick/Count))
system.cpu0.icache.overallAvgMissLatency::total 66423.605551                       # average overall miss latency ((Tick/Count))
system.cpu0.icache.blockedCycles::no_mshrs         2084                       # number of cycles access was blocked (Cycle)
system.cpu0.icache.blockedCycles::no_targets            0                       # number of cycles access was blocked (Cycle)
system.cpu0.icache.blockedCauses::no_mshrs           13                       # number of times access was blocked (Count)
system.cpu0.icache.blockedCauses::no_targets            0                       # number of times access was blocked (Count)
system.cpu0.icache.avgBlocked::no_mshrs    160.307692                       # average number of cycles each access was blocked ((Cycle/Count))
system.cpu0.icache.avgBlocked::no_targets          nan                       # average number of cycles each access was blocked ((Cycle/Count))
system.cpu0.icache.writebacks::writebacks         2619                       # number of writebacks (Count)
system.cpu0.icache.writebacks::total             2619                       # number of writebacks (Count)
system.cpu0.icache.demandMshrHits::cpu0.inst          783                       # number of demand (read+write) MSHR hits (Count)
system.cpu0.icache.demandMshrHits::total          783                       # number of demand (read+write) MSHR hits (Count)
system.cpu0.icache.overallMshrHits::cpu0.inst          783                       # number of overall MSHR hits (Count)
system.cpu0.icache.overallMshrHits::total          783                       # number of overall MSHR hits (Count)
system.cpu0.icache.demandMshrMisses::cpu0.inst         3144                       # number of demand (read+write) MSHR misses (Count)
system.cpu0.icache.demandMshrMisses::total         3144                       # number of demand (read+write) MSHR misses (Count)
system.cpu0.icache.overallMshrMisses::cpu0.inst         3144                       # number of overall MSHR misses (Count)
system.cpu0.icache.overallMshrMisses::total         3144                       # number of overall MSHR misses (Count)
system.cpu0.icache.demandMshrMissLatency::cpu0.inst    205732499                       # number of demand (read+write) MSHR miss ticks (Tick)
system.cpu0.icache.demandMshrMissLatency::total    205732499                       # number of demand (read+write) MSHR miss ticks (Tick)
system.cpu0.icache.overallMshrMissLatency::cpu0.inst    205732499                       # number of overall MSHR miss ticks (Tick)
system.cpu0.icache.overallMshrMissLatency::total    205732499                       # number of overall MSHR miss ticks (Tick)
system.cpu0.icache.demandMshrMissRate::cpu0.inst     0.000680                       # mshr miss ratio for demand accesses (Ratio)
system.cpu0.icache.demandMshrMissRate::total     0.000680                       # mshr miss ratio for demand accesses (Ratio)
system.cpu0.icache.overallMshrMissRate::cpu0.inst     0.000680                       # mshr miss ratio for overall accesses (Ratio)
system.cpu0.icache.overallMshrMissRate::total     0.000680                       # mshr miss ratio for overall accesses (Ratio)
system.cpu0.icache.demandAvgMshrMissLatency::cpu0.inst 65436.545483                       # average overall mshr miss latency ((Tick/Count))
system.cpu0.icache.demandAvgMshrMissLatency::total 65436.545483                       # average overall mshr miss latency ((Tick/Count))
system.cpu0.icache.overallAvgMshrMissLatency::cpu0.inst 65436.545483                       # average overall mshr miss latency ((Tick/Count))
system.cpu0.icache.overallAvgMshrMissLatency::total 65436.545483                       # average overall mshr miss latency ((Tick/Count))
system.cpu0.icache.replacements                  2619                       # number of replacements (Count)
system.cpu0.icache.ReadReq.hits::cpu0.inst      4620647                       # number of ReadReq hits (Count)
system.cpu0.icache.ReadReq.hits::total        4620647                       # number of ReadReq hits (Count)
system.cpu0.icache.ReadReq.misses::cpu0.inst         3927                       # number of ReadReq misses (Count)
system.cpu0.icache.ReadReq.misses::total         3927                       # number of ReadReq misses (Count)
system.cpu0.icache.ReadReq.missLatency::cpu0.inst    260845499                       # number of ReadReq miss ticks (Tick)
system.cpu0.icache.ReadReq.missLatency::total    260845499                       # number of ReadReq miss ticks (Tick)
system.cpu0.icache.ReadReq.accesses::cpu0.inst      4624574                       # number of ReadReq accesses(hits+misses) (Count)
system.cpu0.icache.ReadReq.accesses::total      4624574                       # number of ReadReq accesses(hits+misses) (Count)
system.cpu0.icache.ReadReq.missRate::cpu0.inst     0.000849                       # miss rate for ReadReq accesses (Ratio)
system.cpu0.icache.ReadReq.missRate::total     0.000849                       # miss rate for ReadReq accesses (Ratio)
system.cpu0.icache.ReadReq.avgMissLatency::cpu0.inst 66423.605551                       # average ReadReq miss latency ((Tick/Count))
system.cpu0.icache.ReadReq.avgMissLatency::total 66423.605551                       # average ReadReq miss latency ((Tick/Count))
system.cpu0.icache.ReadReq.mshrHits::cpu0.inst          783                       # number of ReadReq MSHR hits (Count)
system.cpu0.icache.ReadReq.mshrHits::total          783                       # number of ReadReq MSHR hits (Count)
system.cpu0.icache.ReadReq.mshrMisses::cpu0.inst         3144                       # number of ReadReq MSHR misses (Count)
system.cpu0.icache.ReadReq.mshrMisses::total         3144                       # number of ReadReq MSHR misses (Count)
system.cpu0.icache.ReadReq.mshrMissLatency::cpu0.inst    205732499                       # number of ReadReq MSHR miss ticks (Tick)
system.cpu0.icache.ReadReq.mshrMissLatency::total    205732499                       # number of ReadReq MSHR miss ticks (Tick)
system.cpu0.icache.ReadReq.mshrMissRate::cpu0.inst     0.000680                       # mshr miss rate for ReadReq accesses (Ratio)
system.cpu0.icache.ReadReq.mshrMissRate::total     0.000680                       # mshr miss rate for ReadReq accesses (Ratio)
system.cpu0.icache.ReadReq.avgMshrMissLatency::cpu0.inst 65436.545483                       # average ReadReq mshr miss latency ((Tick/Count))
system.cpu0.icache.ReadReq.avgMshrMissLatency::total 65436.545483                       # average ReadReq mshr miss latency ((Tick/Count))
system.cpu0.icache.power_state.pwrStateResidencyTicks::UNDEFINED  74301211250                       # Cumulative time (in ticks) in various power states (Tick)
system.cpu0.icache.tags.tagsInUse          509.536623                       # Average ticks per tags in use ((Tick/Count))
system.cpu0.icache.tags.totalRefs             4623790                       # Total number of references to valid blocks. (Count)
system.cpu0.icache.tags.sampledRefs              3143                       # Sample count of references to valid blocks. (Count)
system.cpu0.icache.tags.avgRefs           1471.139039                       # Average number of references to valid blocks. ((Count/Count))
system.cpu0.icache.tags.warmupTick              85250                       # The tick when the warmup percentage was hit. (Tick)
system.cpu0.icache.tags.occupancies::cpu0.inst   509.536623                       # Average occupied blocks per tick, per requestor ((Count/Tick))
system.cpu0.icache.tags.avgOccs::cpu0.inst     0.995189                       # Average percentage of cache occupancy ((Ratio/Tick))
system.cpu0.icache.tags.avgOccs::total       0.995189                       # Average percentage of cache occupancy ((Ratio/Tick))
system.cpu0.icache.tags.occupanciesTaskId::1024          511                       # Occupied blocks per task id (Count)
system.cpu0.icache.tags.ageTaskId_1024::0          117                       # Occupied blocks per task id, per block age (Count)
system.cpu0.icache.tags.ageTaskId_1024::1           92                       # Occupied blocks per task id, per block age (Count)
system.cpu0.icache.tags.ageTaskId_1024::4          302                       # Occupied blocks per task id, per block age (Count)
system.cpu0.icache.tags.ratioOccsTaskId::1024     0.998047                       # Ratio of occupied blocks and all blocks, per task id (Ratio)
system.cpu0.icache.tags.tagAccesses           9252291                       # Number of tag accesses (Count)
system.cpu0.icache.tags.dataAccesses          9252291                       # Number of data accesses (Count)
system.cpu0.icache.tags.power_state.pwrStateResidencyTicks::UNDEFINED  74301211250                       # Cumulative time (in ticks) in various power states (Tick)
system.cpu0.iew.idleCycles                          0                       # Number of cycles IEW is idle (Cycle)
system.cpu0.iew.squashCycles                    11428                       # Number of cycles IEW is squashing (Cycle)
system.cpu0.iew.blockCycles                  35176977                       # Number of cycles IEW is blocking (Cycle)
system.cpu0.iew.unblockCycles                13064185                       # Number of cycles IEW is unblocking (Cycle)
system.cpu0.iew.dispatchedInsts              75648057                       # Number of instructions dispatched to IQ (Count)
system.cpu0.iew.dispSquashedInsts                 865                       # Number of squashed instructions skipped by dispatch (Count)
system.cpu0.iew.dispLoadInsts                 9966096                       # Number of dispatched load instructions (Count)
system.cpu0.iew.dispStoreInsts                4073520                       # Number of dispatched store instructions (Count)
system.cpu0.iew.dispNonSpecInsts                  551                       # Number of dispatched non-speculative instructions (Count)
system.cpu0.iew.iqFullEvents                     2180                       # Number of times the IQ has become full, causing a stall (Count)
system.cpu0.iew.lsqFullEvents                12936382                       # Number of times the LSQ has become full, causing a stall (Count)
system.cpu0.iew.memOrderViolationEvents           283                       # Number of memory order violations (Count)
system.cpu0.iew.predictedTakenIncorrect          2871                       # Number of branches that were predicted taken incorrectly (Count)
system.cpu0.iew.predictedNotTakenIncorrect         7539                       # Number of branches that were predicted not taken incorrectly (Count)
system.cpu0.iew.branchMispredicts               10410                       # Number of branch mispredicts detected at execute (Count)
system.cpu0.iew.instsToCommit                75481323                       # Cumulative count of insts sent to commit (Count)
system.cpu0.iew.writebackCount               75472133                       # Cumulative count of insts written-back (Count)
system.cpu0.iew.producerInst                 54921607                       # Number of instructions producing a value (Count)
system.cpu0.iew.consumerInst                 90193977                       # Number of instructions consuming a value (Count)
system.cpu0.iew.wbRate                       0.253940                       # Insts written-back per cycle ((Count/Cycle))
system.cpu0.iew.wbFanout                     0.608928                       # Average fanout of values written-back ((Count/Count))
system.cpu0.interrupts.clk_domain.clock          4000                       # Clock period in ticks (Tick)
system.cpu0.itb_walker_cache.blockedCycles::no_mshrs            0                       # number of cycles access was blocked (Cycle)
system.cpu0.itb_walker_cache.blockedCycles::no_targets            0                       # number of cycles access was blocked (Cycle)
system.cpu0.itb_walker_cache.blockedCauses::no_mshrs            0                       # number of times access was blocked (Count)
system.cpu0.itb_walker_cache.blockedCauses::no_targets            0                       # number of times access was blocked (Count)
system.cpu0.itb_walker_cache.avgBlocked::no_mshrs          nan                       # average number of cycles each access was blocked ((Cycle/Count))
system.cpu0.itb_walker_cache.avgBlocked::no_targets          nan                       # average number of cycles each access was blocked ((Cycle/Count))
system.cpu0.itb_walker_cache.replacements            0                       # number of replacements (Count)
system.cpu0.itb_walker_cache.power_state.pwrStateResidencyTicks::UNDEFINED  74301211250                       # Cumulative time (in ticks) in various power states (Tick)
system.cpu0.itb_walker_cache.tags.tagsInUse            0                       # Average ticks per tags in use ((Tick/Count))
system.cpu0.itb_walker_cache.tags.totalRefs            0                       # Total number of references to valid blocks. (Count)
[...]
system.mem_ctrls.dram.bytesPerActivate::256-319       193354      3.60%     99.42% # Bytes accessed per row activation (Byte)
system.mem_ctrls.dram.bytesPerActivate::320-383        13371      0.25%     99.67% # Bytes accessed per row activation (Byte)
system.mem_ctrls.dram.bytesPerActivate::384-447         6835      0.13%     99.80% # Bytes accessed per row activation (Byte)
system.mem_ctrls.dram.bytesPerActivate::448-511         5213      0.10%     99.90% # Bytes accessed per row activation (Byte)
system.mem_ctrls.dram.bytesPerActivate::512-575         5593      0.10%    100.00% # Bytes accessed per row activation (Byte)
system.mem_ctrls.dram.bytesPerActivate::total      5377428                       # Bytes accessed per row activation (Byte)
system.mem_ctrls.dram.bytesRead             296425056                       # Total bytes read (Byte)
system.mem_ctrls.dram.bytesWritten          128081760                       # Total bytes written (Byte)
system.mem_ctrls.dram.avgRdBW             3989.505030                       # Average DRAM read bandwidth in MiBytes/s ((Byte/Second))
system.mem_ctrls.dram.avgWrBW             1723.817928                       # Average DRAM write bandwidth in MiBytes/s ((Byte/Second))
system.mem_ctrls.dram.peakBW                 16000.00                       # Theoretical peak bandwidth in MiByte/s ((Byte/Second))
system.mem_ctrls.dram.busUtil                   35.71                       # Data bus utilization in percentage (Ratio)
system.mem_ctrls.dram.busUtilRead               24.93                       # Data bus utilization in percentage for reads (Ratio)
system.mem_ctrls.dram.busUtilWrite              10.77                       # Data bus utilization in percentage for writes (Ratio)
system.mem_ctrls.dram.pageHitRate               59.46                       # Row buffer hit rate, read and write combined (Ratio)
system.mem_ctrls.dram.power_state.pwrStateResidencyTicks::UNDEFINED  74301211250                       # Cumulative time (in ticks) in various power states (Tick)
system.mem_ctrls.dram.rank0.actEnergy               0                       # Energy for activate commands per rank (pJ) (Joule)
system.mem_ctrls.dram.rank0.preEnergy               0                       # Energy for precharge commands per rank (pJ) (Joule)
system.mem_ctrls.dram.rank0.readEnergy              0                       # Energy for read commands per rank (pJ) (Joule)
system.mem_ctrls.dram.rank0.writeEnergy             0                       # Energy for write commands per rank (pJ) (Joule)
system.mem_ctrls.dram.rank0.refreshEnergy            0                       # Energy for refresh commands per rank (pJ) (Joule)
system.mem_ctrls.dram.rank0.actBackEnergy            0                       # Energy for active background per rank (pJ) (Joule)
system.mem_ctrls.dram.rank0.preBackEnergy            0                       # Energy for precharge background per rank (pJ) (Joule)
system.mem_ctrls.dram.rank0.actPowerDownEnergy            0                       # Energy for active power-down per rank (pJ) (Joule)
system.mem_ctrls.dram.rank0.prePowerDownEnergy            0                       # Energy for precharge power-down per rank (pJ) (Joule)
system.mem_ctrls.dram.rank0.selfRefreshEnergy            0                       # Energy for self refresh per rank (pJ) (Joule)
system.mem_ctrls.dram.rank0.totalEnergy             0                       # Total energy per rank (pJ) (Joule)
system.mem_ctrls.dram.rank0.averagePower            0                       # Core power per rank (mW) (Watt)
system.mem_ctrls.dram.rank0.totalIdleTime            0                       # Total Idle time Per DRAM Rank (Tick)
system.mem_ctrls.dram.rank0.pwrStateTime::IDLE   6029391750                       # Time in different power states (Tick)
system.mem_ctrls.dram.rank0.pwrStateTime::REF   4206400000                       # Time in different power states (Tick)
system.mem_ctrls.dram.rank0.pwrStateTime::SREF            0                       # Time in different power states (Tick)
system.mem_ctrls.dram.rank0.pwrStateTime::PRE_PDN            0                       # Time in different power states (Tick)
system.mem_ctrls.dram.rank0.pwrStateTime::ACT  64065419500                       # Time in different power states (Tick)
system.mem_ctrls.dram.rank0.pwrStateTime::ACT_PDN            0                       # Time in different power states (Tick)
system.mem_ctrls.power_state.pwrStateResidencyTicks::UNDEFINED  74301211250                       # Cumulative time (in ticks) in various power states (Tick)
system.membus.transDist::ReadResp             2755354                       # Transaction distribution (Count)
system.membus.transDist::WritebackDirty       2001292                       # Transaction distribution (Count)
system.membus.transDist::CleanEvict           2592309                       # Transaction distribution (Count)
system.membus.transDist::UpgradeReq                70                       # Transaction distribution (Count)
system.membus.transDist::ReadExReq            1876301                       # Transaction distribution (Count)
system.membus.transDist::ReadExResp           1876301                       # Transaction distribution (Count)
system.membus.transDist::ReadSharedReq        2755354                       # Transaction distribution (Count)
system.membus.pktCount_system.l2.mem_side_port::system.mem_ctrls.port     13856981                       # Packet count per connected requestor and responder (Count)
system.membus.pktCount_system.l2.mem_side_port::total     13856981                       # Packet count per connected requestor and responder (Count)
system.membus.pktCount::total                13856981                       # Packet count per connected requestor and responder (Count)
system.membus.pktSize_system.l2.mem_side_port::system.mem_ctrls.port    424508608                       # Cumulative packet size per connected requestor and responder (Byte)
system.membus.pktSize_system.l2.mem_side_port::total    424508608                       # Cumulative packet size per connected requestor and responder (Byte)
system.membus.pktSize::total                424508608                       # Cumulative packet size per connected requestor and responder (Byte)
system.membus.snoops                               70                       # Total snoops (Count)
system.membus.snoopTraffic                          0                       # Total snoop traffic (Byte)
system.membus.snoopFanout::samples            4631725                       # Request fanout histogram (Count)
system.membus.snoopFanout::mean                     0                       # Request fanout histogram (Count)
system.membus.snoopFanout::stdev                    0                       # Request fanout histogram (Count)
system.membus.snoopFanout::underflows               0      0.00%      0.00% # Request fanout histogram (Count)
system.membus.snoopFanout::0                  4631725    100.00%    100.00% # Request fanout histogram (Count)
system.membus.snoopFanout::1                        0      0.00%    100.00% # Request fanout histogram (Count)
system.membus.snoopFanout::overflows                0      0.00%    100.00% # Request fanout histogram (Count)
system.membus.snoopFanout::min_value                0                       # Request fanout histogram (Count)
system.membus.snoopFanout::max_value                0                       # Request fanout histogram (Count)
system.membus.snoopFanout::total              4631725                       # Request fanout histogram (Count)
system.membus.power_state.pwrStateResidencyTicks::UNDEFINED  74301211250                       # Cumulative time (in ticks) in various power states (Tick)
system.membus.reqLayer8.occupancy         17722417750                       # Layer occupancy (ticks) (Tick)
system.membus.reqLayer8.utilization               0.2                       # Layer utilization (Ratio)
system.membus.respLayer1.occupancy        23542799750                       # Layer occupancy (ticks) (Tick)
system.membus.respLayer1.utilization              0.3                       # Layer utilization (Ratio)
system.membus.snoop_filter.totRequests        9225335                       # Total number of requests made to the snoop filter. (Count)
system.membus.snoop_filter.hitSingleRequests      4596411                       # Number of requests hitting in the snoop filter with a single holder of the requested data. (Count)
system.membus.snoop_filter.hitMultiRequests            0                       # Number of requests hitting in the snoop filter with multiple (>1) holders of the requested data. (Count)
system.membus.snoop_filter.totSnoops                0                       # Total number of snoops made to the snoop filter. (Count)
system.membus.snoop_filter.hitSingleSnoops            0                       # Number of snoops hitting in the snoop filter with a single holder of the requested data. (Count)
system.membus.snoop_filter.hitMultiSnoops            0                       # Number of snoops hitting in the snoop filter with multiple (>1) holders of the requested data. (Count)
system.tol2bus.transDist::ReadResp            2758411                       # Transaction distribution (Count)
system.tol2bus.transDist::WritebackDirty      4003056                       # Transaction distribution (Count)
system.tol2bus.transDist::WritebackClean         2624                       # Transaction distribution (Count)
system.tol2bus.transDist::CleanEvict          5223307                       # Transaction distribution (Count)
system.tol2bus.transDist::UpgradeReq              147                       # Transaction distribution (Count)
system.tol2bus.transDist::UpgradeResp             147                       # Transaction distribution (Count)
system.tol2bus.transDist::ReadExReq           1876593                       # Transaction distribution (Count)
system.tol2bus.transDist::ReadExResp          1876593                       # Transaction distribution (Count)
system.tol2bus.transDist::ReadCleanReq           3404                       # Transaction distribution (Count)
system.tol2bus.transDist::ReadSharedReq       2755008                       # Transaction distribution (Count)
system.tol2bus.pktCount_system.cpu0.icache.mem_side_port::system.l2.cpu_side_port         8888                       # Packet count per connected requestor and responder (Count)
system.tol2bus.pktCount_system.cpu0.dcache.mem_side_port::system.l2.cpu_side_port      4327663                       # Packet count per connected requestor and responder (Count)
system.tol2bus.pktCount_system.cpu1.icache.mem_side_port::system.l2.cpu_side_port          246                       # Packet count per connected requestor and responder (Count)
system.tol2bus.pktCount_system.cpu1.dcache.mem_side_port::system.l2.cpu_side_port      3187457                       # Packet count per connected requestor and responder (Count)
system.tol2bus.pktCount_system.cpu2.icache.mem_side_port::system.l2.cpu_side_port          128                       # Packet count per connected requestor and responder (Count)
system.tol2bus.pktCount_system.cpu2.dcache.mem_side_port::system.l2.cpu_side_port      3187178                       # Packet count per connected requestor and responder (Count)
system.tol2bus.pktCount_system.cpu3.icache.mem_side_port::system.l2.cpu_side_port          141                       # Packet count per connected requestor and responder (Count)
system.tol2bus.pktCount_system.cpu3.dcache.mem_side_port::system.l2.cpu_side_port      3187188                       # Packet count per connected requestor and responder (Count)
system.tol2bus.pktCount::total               13898889                       # Packet count per connected requestor and responder (Count)
system.tol2bus.pktSize_system.cpu0.icache.mem_side_port::system.l2.cpu_side_port       367616                       # Cumulative packet size per connected requestor and responder (Byte)
system.tol2bus.pktSize_system.cpu0.dcache.mem_side_port::system.l2.cpu_side_port    124452224                       # Cumulative packet size per connected requestor and responder (Byte)
system.tol2bus.pktSize_system.cpu1.icache.mem_side_port::system.l2.cpu_side_port         7936                       # Cumulative packet size per connected requestor and responder (Byte)
system.tol2bus.pktSize_system.cpu1.dcache.mem_side_port::system.l2.cpu_side_port    100010240                       # Cumulative packet size per connected requestor and responder (Byte)
system.tol2bus.pktSize_system.cpu2.icache.mem_side_port::system.l2.cpu_side_port         4032                       # Cumulative packet size per connected requestor and responder (Byte)
system.tol2bus.pktSize_system.cpu2.dcache.mem_side_port::system.l2.cpu_side_port    100004160                       # Cumulative packet size per connected requestor and responder (Byte)
system.tol2bus.pktSize_system.cpu3.icache.mem_side_port::system.l2.cpu_side_port         4352                       # Cumulative packet size per connected requestor and responder (Byte)
system.tol2bus.pktSize_system.cpu3.dcache.mem_side_port::system.l2.cpu_side_port    100003712                       # Cumulative packet size per connected requestor and responder (Byte)
system.tol2bus.pktSize::total               424854272                       # Cumulative packet size per connected requestor and responder (Byte)
system.tol2bus.snoops                         4600401                       # Total snoops (Count)
system.tol2bus.snoopTraffic                 128149504                       # Total snoop traffic (Byte)
system.tol2bus.snoopFanout::samples           9234439                       # Request fanout histogram (Count)
system.tol2bus.snoopFanout::mean             0.001316                       # Request fanout histogram (Count)
system.tol2bus.snoopFanout::stdev            0.042814                       # Request fanout histogram (Count)
system.tol2bus.snoopFanout::underflows              0      0.00%      0.00% # Request fanout histogram (Count)
system.tol2bus.snoopFanout::0                 9223889     99.89%     99.89% # Request fanout histogram (Count)
system.tol2bus.snoopFanout::1                    9647      0.10%     99.99% # Request fanout histogram (Count)
system.tol2bus.snoopFanout::2                     295      0.00%     99.99% # Request fanout histogram (Count)
system.tol2bus.snoopFanout::3                     516      0.01%    100.00% # Request fanout histogram (Count)
system.tol2bus.snoopFanout::4                      92      0.00%    100.00% # Request fanout histogram (Count)
system.tol2bus.snoopFanout::5                       0      0.00%    100.00% # Request fanout histogram (Count)
system.tol2bus.snoopFanout::6                       0      0.00%    100.00% # Request fanout histogram (Count)
system.tol2bus.snoopFanout::7                       0      0.00%    100.00% # Request fanout histogram (Count)
system.tol2bus.snoopFanout::8                       0      0.00%    100.00% # Request fanout histogram (Count)
system.tol2bus.snoopFanout::9                       0      0.00%    100.00% # Request fanout histogram (Count)
system.tol2bus.snoopFanout::10                      0      0.00%    100.00% # Request fanout histogram (Count)
system.tol2bus.snoopFanout::11                      0      0.00%    100.00% # Request fanout histogram (Count)
system.tol2bus.snoopFanout::12                      0      0.00%    100.00% # Request fanout histogram (Count)
system.tol2bus.snoopFanout::13                      0      0.00%    100.00% # Request fanout histogram (Count)
system.tol2bus.snoopFanout::14                      0      0.00%    100.00% # Request fanout histogram (Count)
system.tol2bus.snoopFanout::15                      0      0.00%    100.00% # Request fanout histogram (Count)
system.tol2bus.snoopFanout::16                      0      0.00%    100.00% # Request fanout histogram (Count)
system.tol2bus.snoopFanout::overflows               0      0.00%    100.00% # Request fanout histogram (Count)
system.tol2bus.snoopFanout::min_value               0                       # Request fanout histogram (Count)
system.tol2bus.snoopFanout::max_value               4                       # Request fanout histogram (Count)
system.tol2bus.snoopFanout::total             9234439                       # Request fanout histogram (Count)
system.tol2bus.power_state.pwrStateResidencyTicks::UNDEFINED  74301211250                       # Cumulative time (in ticks) in various power states (Tick)
system.tol2bus.reqLayer0.occupancy         3318407000                       # Layer occupancy (ticks) (Tick)
system.tol2bus.reqLayer0.utilization              0.0                       # Layer utilization (Ratio)
system.tol2bus.respLayer0.occupancy           2358985                       # Layer occupancy (ticks) (Tick)
system.tol2bus.respLayer0.utilization             0.0                       # Layer utilization (Ratio)
system.tol2bus.respLayer1.occupancy        1082303744                       # Layer occupancy (ticks) (Tick)
system.tol2bus.respLayer1.utilization             0.0                       # Layer utilization (Ratio)
system.tol2bus.respLayer12.occupancy            57479                       # Layer occupancy (ticks) (Tick)
system.tol2bus.respLayer12.utilization            0.0                       # Layer utilization (Ratio)
system.tol2bus.respLayer13.occupancy        797130440                       # Layer occupancy (ticks) (Tick)
system.tol2bus.respLayer13.utilization            0.0                       # Layer utilization (Ratio)
system.tol2bus.respLayer4.occupancy             96716                       # Layer occupancy (ticks) (Tick)
system.tol2bus.respLayer4.utilization             0.0                       # Layer utilization (Ratio)
system.tol2bus.respLayer5.occupancy         797207941                       # Layer occupancy (ticks) (Tick)
system.tol2bus.respLayer5.utilization             0.0                       # Layer utilization (Ratio)
system.tol2bus.respLayer8.occupancy             53968                       # Layer occupancy (ticks) (Tick)
system.tol2bus.respLayer8.utilization             0.0                       # Layer utilization (Ratio)
system.tol2bus.respLayer9.occupancy         797127943                       # Layer occupancy (ticks) (Tick)
system.tol2bus.respLayer9.utilization             0.0                       # Layer utilization (Ratio)
system.tol2bus.snoop_filter.totRequests       9264852                       # Total number of requests made to the snoop filter. (Count)
system.tol2bus.snoop_filter.hitSingleRequests      4630452                       # Number of requests hitting in the snoop filter with a single holder of the requested data. (Count)
system.tol2bus.snoop_filter.hitMultiRequests         3976                       # Number of requests hitting in the snoop filter with multiple (>1) holders of the requested data. (Count)
system.tol2bus.snoop_filter.totSnoops            5891                       # Total number of snoops made to the snoop filter. (Count)
system.tol2bus.snoop_filter.hitSingleSnoops         5667                       # Number of snoops hitting in the snoop filter with a single holder of the requested data. (Count)
system.tol2bus.snoop_filter.hitMultiSnoops          224                       # Number of snoops hitting in the snoop filter with multiple (>1) holders of the requested data. (Count)
system.voltage_domain.voltage                       1                       # Voltage in Volts (Volt)
system.workload.inst.arm                            0                       # number of arm instructions executed (Count)
system.workload.inst.quiesce                        0                       # number of quiesce instructions executed (Count)

---------- End Simulation Statistics   ----------
