
---------- Begin Simulation Statistics ----------
simSeconds                                   0.246197                       # Number of seconds simulated (Second)
simTicks                                 246197097250                       # Number of ticks simulated (Tick)
finalTick                                246197097250                       # Number of ticks from beginning of simulation (restored from checkpoints and never reset) (Tick)
simFreq                                  1000000000000                       # The number of ticks per simulated second ((Tick/Second))
hostSeconds                                   1773.82                       # Real time elapsed on the host (Second)
hostTickRate                                138794726                       # The number of ticks simulated per host second (ticks/s) ((Tick/Second))
hostMemory                                    7682564                       # Number of bytes of host memory used (Byte)
simInsts                                     90027502                       # Number of instructions simulated (Count)
simOps                                      167526442                       # Number of ops (including micro ops) simulated (Count)
hostInstRate                                    50753                       # Simulator instruction rate (inst/s) ((Count/Second))
hostOpRate                                      94444                       # Simulator op (including micro ops) rate (op/s) ((Count/Second))
system.clk_domain.clock                          1000                       # Clock period in ticks (Tick)
system.cpu.numCycles                        984788390                       # Number of cpu cycles simulated (Cycle)
system.cpu.numWorkItemsStarted                      0                       # Number of work items this cpu started (Count)
system.cpu.numWorkItemsCompleted                    0                       # Number of work items this cpu completed (Count)
system.cpu.instsAdded                       358996484                       # Number of instructions added to the IQ (excludes non-spec) (Count)
system.cpu.nonSpecInstsAdded                       73                       # Number of non-speculative instructions added to the IQ (Count)
system.cpu.instsIssued                      358921171                       # Number of instructions issued (Count)
system.cpu.squashedInstsIssued                   3047                       # Number of squashed instructions issued (Count)
system.cpu.squashedInstsExamined            191470109                       # Number of squashed instructions iterated over during squash; mainly for profiling (Count)
system.cpu.squashedOperandsExamined            473030                       # Number of squashed operands that are examined and possibly removed from graph (Count)
system.cpu.squashedNonSpecRemoved                  51                       # Number of squashed non-spec instructions that were removed (Count)
system.cpu.numIssuedDist::samples           984516841                       # Number of insts issued each cycle (Count)
system.cpu.numIssuedDist::mean               0.364566                       # Number of insts issued each cycle (Count)
system.cpu.numIssuedDist::stdev              1.315445                       # Number of insts issued each cycle (Count)
system.cpu.numIssuedDist::underflows                0      0.00%      0.00% # Number of insts issued each cycle (Count)
system.cpu.numIssuedDist::0                 884793879     89.87%     89.87% # Number of insts issued each cycle (Count)
system.cpu.numIssuedDist::1                  26943145      2.74%     92.61% # Number of insts issued each cycle (Count)
system.cpu.numIssuedDist::2                  14430819      1.47%     94.07% # Number of insts issued each cycle (Count)
system.cpu.numIssuedDist::3                  11477830      1.17%     95.24% # Number of insts issued each cycle (Count)
system.cpu.numIssuedDist::4                  11883778      1.21%     96.45% # Number of insts issued each cycle (Count)
system.cpu.numIssuedDist::5                  14182355      1.44%     97.89% # Number of insts issued each cycle (Count)
system.cpu.numIssuedDist::6                   6664520      0.68%     98.56% # Number of insts issued each cycle (Count)
system.cpu.numIssuedDist::7                   2875229      0.29%     98.86% # Number of insts issued each cycle (Count)
system.cpu.numIssuedDist::8                  11265286      1.14%    100.00% # Number of insts issued each cycle (Count)
system.cpu.numIssuedDist::overflows                 0      0.00%    100.00% # Number of insts issued each cycle (Count)
system.cpu.numIssuedDist::min_value                 0                       # Number of insts issued each cycle (Count)
system.cpu.numIssuedDist::max_value                 8                       # Number of insts issued each cycle (Count)
system.cpu.numIssuedDist::total             984516841                       # Number of insts issued each cycle (Count)
system.cpu.statFuBusy::No_OpClass                   0      0.00%      0.00% # attempts to use FU when none available (Count)
system.cpu.statFuBusy::IntAlu                   12420      0.05%      0.05% # attempts to use FU when none available (Count)
system.cpu.statFuBusy::IntMult                      0      0.00%      0.05% # attempts to use FU when none available (Count)
system.cpu.statFuBusy::IntDiv                       0      0.00%      0.05% # attempts to use FU when none available (Count)
system.cpu.statFuBusy::FloatAdd                     0      0.00%      0.05% # attempts to use FU when none available (Count)
system.cpu.statFuBusy::FloatCmp                     0      0.00%      0.05% # attempts to use FU when none available (Count)
system.cpu.statFuBusy::FloatCvt                     0      0.00%      0.05% # attempts to use FU when none available (Count)
system.cpu.statFuBusy::FloatMult                    0      0.00%      0.05% # attempts to use FU when none available (Count)
system.cpu.statFuBusy::FloatMultAcc                 0      0.00%      0.05% # attempts to use FU when none available (Count)
system.cpu.statFuBusy::FloatDiv                     0      0.00%      0.05% # attempts to use FU when none available (Count)
system.cpu.statFuBusy::FloatMisc                    0      0.00%      0.05% # attempts to use FU when none available (Count)
system.cpu.statFuBusy::FloatSqrt                    0      0.00%      0.05% # attempts to use FU when none available (Count)
system.cpu.statFuBusy::SimdAdd                      0      0.00%      0.05% # attempts to use FU when none available (Count)
system.cpu.statFuBusy::SimdAddAcc                   0      0.00%      0.05% # attempts to use FU when none available (Count)
system.cpu.statFuBusy::SimdAlu                     74      0.00%      0.05% # attempts to use FU when none available (Count)
system.cpu.statFuBusy::SimdCmp                      0      0.00%      0.05% # attempts to use FU when none available (Count)
system.cpu.statFuBusy::SimdCvt                     30      0.00%      0.05% # attempts to use FU when none available (Count)
system.cpu.statFuBusy::SimdMisc                    17      0.00%      0.05% # attempts to use FU when none available (Count)
system.cpu.statFuBusy::SimdMult                     0      0.00%      0.05% # attempts to use FU when none available (Count)
system.cpu.statFuBusy::SimdMultAcc                  0      0.00%      0.05% # attempts to use FU when none available (Count)
system.cpu.statFuBusy::SimdShift                    1      0.00%      0.05% # attempts to use FU when none available (Count)
system.cpu.statFuBusy::SimdShiftAcc                 0      0.00%      0.05% # attempts to use FU when none available (Count)
system.cpu.statFuBusy::SimdDiv                      0      0.00%      0.05% # attempts to use FU when none available (Count)
system.cpu.statFuBusy::SimdSqrt                     0      0.00%      0.05% # attempts to use FU when none available (Count)
system.cpu.statFuBusy::SimdFloatAdd           1072008      4.65%      4.70% # attempts to use FU when none available (Count)
system.cpu.statFuBusy::SimdFloatAlu                 0      0.00%      4.70% # attempts to use FU when none available (Count)
system.cpu.statFuBusy::SimdFloatCmp                 0      0.00%      4.70% # attempts to use FU when none available (Count)
system.cpu.statFuBusy::SimdFloatCvt                 0      0.00%      4.70% # attempts to use FU when none available (Count)
system.cpu.statFuBusy::SimdFloatDiv                 0      0.00%      4.70% # attempts to use FU when none available (Count)
system.cpu.statFuBusy::SimdFloatMisc                0      0.00%      4.70% # attempts to use FU when none available (Count)
system.cpu.statFuBusy::SimdFloatMult           464465      2.01%      6.72% # attempts to use FU when none available (Count)
system.cpu.statFuBusy::SimdFloatMultAcc             0      0.00%      6.72% # attempts to use FU when none available (Count)
system.cpu.statFuBusy::SimdFloatSqrt                0      0.00%      6.72% # attempts to use FU when none available (Count)
system.cpu.statFuBusy::SimdReduceAdd                0      0.00%      6.72% # attempts to use FU when none available (Count)
system.cpu.statFuBusy::SimdReduceAlu                0      0.00%      6.72% # attempts to use FU when none available (Count)
system.cpu.statFuBusy::SimdReduceCmp                0      0.00%      6.72% # attempts to use FU when none available (Count)
system.cpu.statFuBusy::SimdFloatReduceAdd            0      0.00%      6.72% # attempts to use FU when none available (Count)
system.cpu.statFuBusy::SimdFloatReduceCmp            0      0.00%      6.72% # attempts to use FU when none available (Count)
system.cpu.statFuBusy::SimdAes                      0      0.00%      6.72% # attempts to use FU when none available (Count)
system.cpu.statFuBusy::SimdAesMix                   0      0.00%      6.72% # attempts to use FU when none available (Count)
system.cpu.statFuBusy::SimdSha1Hash                 0      0.00%      6.72% # attempts to use FU when none available (Count)
system.cpu.statFuBusy::SimdSha1Hash2                0      0.00%      6.72% # attempts to use FU when none available (Count)
system.cpu.statFuBusy::SimdSha256Hash               0      0.00%      6.72% # attempts to use FU when none available (Count)
system.cpu.statFuBusy::SimdSha256Hash2              0      0.00%      6.72% # attempts to use FU when none available (Count)
system.cpu.statFuBusy::SimdShaSigma2                0      0.00%      6.72% # attempts to use FU when none available (Count)
system.cpu.statFuBusy::SimdShaSigma3                0      0.00%      6.72% # attempts to use FU when none available (Count)
system.cpu.statFuBusy::SimdPredAlu                  0      0.00%      6.72% # attempts to use FU when none available (Count)
system.cpu.statFuBusy::MemRead                2000780      8.68%     15.39% # attempts to use FU when none available (Count)
system.cpu.statFuBusy::MemWrite               6000222     26.02%     41.41% # attempts to use FU when none available (Count)
system.cpu.statFuBusy::FloatMemRead          11505411     49.89%     91.30% # attempts to use FU when none available (Count)
system.cpu.statFuBusy::FloatMemWrite          2005116      8.70%    100.00% # attempts to use FU when none available (Count)
system.cpu.statFuBusy::IprAccess                    0      0.00%    100.00% # attempts to use FU when none available (Count)
system.cpu.statFuBusy::InstPrefetch                 0      0.00%    100.00% # attempts to use FU when none available (Count)
system.cpu.statIssuedInstType_0::No_OpClass     22019578      6.13%      6.13% # Number of instructions issued per FU type, per thread (Count)
system.cpu.statIssuedInstType_0::IntAlu     126651446     35.29%     41.42% # Number of instructions issued per FU type, per thread (Count)
system.cpu.statIssuedInstType_0::IntMult          221      0.00%     41.42% # Number of instructions issued per FU type, per thread (Count)
system.cpu.statIssuedInstType_0::IntDiv          1765      0.00%     41.42% # Number of instructions issued per FU type, per thread (Count)
system.cpu.statIssuedInstType_0::FloatAdd     12005408      3.34%     44.77% # Number of instructions issued per FU type, per thread (Count)
system.cpu.statIssuedInstType_0::FloatCmp            0      0.00%     44.77% # Number of instructions issued per FU type, per thread (Count)
system.cpu.statIssuedInstType_0::FloatCvt           32      0.00%     44.77% # Number of instructions issued per FU type, per thread (Count)
system.cpu.statIssuedInstType_0::FloatMult            0      0.00%     44.77% # Number of instructions issued per FU type, per thread (Count)
system.cpu.statIssuedInstType_0::FloatMultAcc            0      0.00%     44.77% # Number of instructions issued per FU type, per thread (Count)
system.cpu.statIssuedInstType_0::FloatDiv            0      0.00%     44.77% # Number of instructions issued per FU type, per thread (Count)
system.cpu.statIssuedInstType_0::FloatMisc            0      0.00%     44.77% # Number of instructions issued per FU type, per thread (Count)
system.cpu.statIssuedInstType_0::FloatSqrt            0      0.00%     44.77% # Number of instructions issued per FU type, per thread (Count)
system.cpu.statIssuedInstType_0::SimdAdd          410      0.00%     44.77% # Number of instructions issued per FU type, per thread (Count)
system.cpu.statIssuedInstType_0::SimdAddAcc            0      0.00%     44.77% # Number of instructions issued per FU type, per thread (Count)
system.cpu.statIssuedInstType_0::SimdAlu        23581      0.01%     44.77% # Number of instructions issued per FU type, per thread (Count)
system.cpu.statIssuedInstType_0::SimdCmp            8      0.00%     44.77% # Number of instructions issued per FU type, per thread (Count)
system.cpu.statIssuedInstType_0::SimdCvt         1527      0.00%     44.77% # Number of instructions issued per FU type, per thread (Count)
system.cpu.statIssuedInstType_0::SimdMisc         1718      0.00%     44.77% # Number of instructions issued per FU type, per thread (Count)
system.cpu.statIssuedInstType_0::SimdMult            0      0.00%     44.77% # Number of instructions issued per FU type, per thread (Count)
system.cpu.statIssuedInstType_0::SimdMultAcc            0      0.00%     44.77% # Number of instructions issued per FU type, per thread (Count)
system.cpu.statIssuedInstType_0::SimdShift          301      0.00%     44.77% # Number of instructions issued per FU type, per thread (Count)
system.cpu.statIssuedInstType_0::SimdShiftAcc            0      0.00%     44.77% # Number of instructions issued per FU type, per thread (Count)
system.cpu.statIssuedInstType_0::SimdDiv            0      0.00%     44.77% # Number of instructions issued per FU type, per thread (Count)
system.cpu.statIssuedInstType_0::SimdSqrt            0      0.00%     44.77% # Number of instructions issued per FU type, per thread (Count)
system.cpu.statIssuedInstType_0::SimdFloatAdd     15009026      4.18%     48.96% # Number of instructions issued per FU type, per thread (Count)
system.cpu.statIssuedInstType_0::SimdFloatAlu            0      0.00%     48.96% # Number of instructions issued per FU type, per thread (Count)
system.cpu.statIssuedInstType_0::SimdFloatCmp           26      0.00%     48.96% # Number of instructions issued per FU type, per thread (Count)
system.cpu.statIssuedInstType_0::SimdFloatCvt      3013391      0.84%     49.80% # Number of instructions issued per FU type, per thread (Count)
system.cpu.statIssuedInstType_0::SimdFloatDiv           17      0.00%     49.80% # Number of instructions issued per FU type, per thread (Count)
system.cpu.statIssuedInstType_0::SimdFloatMisc            0      0.00%     49.80% # Number of instructions issued per FU type, per thread (Count)
system.cpu.statIssuedInstType_0::SimdFloatMult      8004609      2.23%     52.03% # Number of instructions issued per FU type, per thread (Count)
system.cpu.statIssuedInstType_0::SimdFloatMultAcc            0      0.00%     52.03% # Number of instructions issued per FU type, per thread (Count)
system.cpu.statIssuedInstType_0::SimdFloatSqrt            0      0.00%     52.03% # Number of instructions issued per FU type, per thread (Count)
system.cpu.statIssuedInstType_0::SimdReduceAdd            0      0.00%     52.03% # Number of instructions issued per FU type, per thread (Count)
system.cpu.statIssuedInstType_0::SimdReduceAlu            0      0.00%     52.03% # Number of instructions issued per FU type, per thread (Count)
system.cpu.statIssuedInstType_0::SimdReduceCmp            0      0.00%     52.03% # Number of instructions issued per FU type, per thread (Count)
system.cpu.statIssuedInstType_0::SimdFloatReduceAdd            0      0.00%     52.03% # Number of instructions issued per FU type, per thread (Count)
system.cpu.statIssuedInstType_0::SimdFloatReduceCmp            0      0.00%     52.03% # Number of instructions issued per FU type, per thread (Count)
system.cpu.statIssuedInstType_0::SimdAes            0      0.00%     52.03% # Number of instructions issued per FU type, per thread (Count)
system.cpu.statIssuedInstType_0::SimdAesMix            0      0.00%     52.03% # Number of instructions issued per FU type, per thread (Count)
system.cpu.statIssuedInstType_0::SimdSha1Hash            0      0.00%     52.03% # Number of instructions issued per FU type, per thread (Count)
system.cpu.statIssuedInstType_0::SimdSha1Hash2            0      0.00%     52.03% # Number of instructions issued per FU type, per thread (Count)
system.cpu.statIssuedInstType_0::SimdSha256Hash            0      0.00%     52.03% # Number of instructions issued per FU type, per thread (Count)
system.cpu.statIssuedInstType_0::SimdSha256Hash2            0      0.00%     52.03% # Number of instructions issued per FU type, per thread (Count)
system.cpu.statIssuedInstType_0::SimdShaSigma2            0      0.00%     52.03% # Number of instructions issued per FU type, per thread (Count)
system.cpu.statIssuedInstType_0::SimdShaSigma3            0      0.00%     52.03% # Number of instructions issued per FU type, per thread (Count)
system.cpu.statIssuedInstType_0::SimdPredAlu            0      0.00%     52.03% # Number of instructions issued per FU type, per thread (Count)
system.cpu.statIssuedInstType_0::MemRead     11110593      3.10%     55.12% # Number of instructions issued per FU type, per thread (Count)
system.cpu.statIssuedInstType_0::MemWrite     25045811      6.98%     62.10% # Number of instructions issued per FU type, per thread (Count)
system.cpu.statIssuedInstType_0::FloatMemRead     75030155     20.90%     83.00% # Number of instructions issued per FU type, per thread (Count)
system.cpu.statIssuedInstType_0::FloatMemWrite     61001548     17.00%    100.00% # Number of instructions issued per FU type, per thread (Count)
system.cpu.statIssuedInstType_0::IprAccess            0      0.00%    100.00% # Number of instructions issued per FU type, per thread (Count)
system.cpu.statIssuedInstType_0::InstPrefetch            0      0.00%    100.00% # Number of instructions issued per FU type, per thread (Count)
system.cpu.statIssuedInstType_0::total      358921171                       # Number of instructions issued per FU type, per thread (Count)
system.cpu.issueRate                         0.364465                       # Inst issue rate ((Count/Cycle))
system.cpu.fuBusy                            23060544                       # FU busy when requested (Count)
system.cpu.fuBusyRate                        0.064250                       # FU busy rate (busy events/executed inst) ((Count/Count))
system.cpu.intInstQueueReads               1346172604                       # Number of integer instruction queue reads (Count)
system.cpu.intInstQueueWrites               286308557                       # Number of integer instruction queue writes (Count)
system.cpu.intInstQueueWakeupAccesses       154794082                       # Number of integer instruction queue wakeup accesses (Count)
system.cpu.fpInstQueueReads                 379250170                       # Number of floating instruction queue reads (Count)
system.cpu.fpInstQueueWrites                264158265                       # Number of floating instruction queue writes (Count)
system.cpu.fpInstQueueWakeupAccesses        182091021                       # Number of floating instruction queue wakeup accesses (Count)
system.cpu.vecInstQueueReads                        0                       # Number of vector instruction queue reads (Count)
system.cpu.vecInstQueueWrites                       0                       # Number of vector instruction queue writes (Count)
system.cpu.vecInstQueueWakeupAccesses               0                       # Number of vector instruction queue wakeup accesses (Count)
system.cpu.intAluAccesses                   162813424                       # Number of integer alu accesses (Count)
system.cpu.fpAluAccesses                    197148713                       # Number of floating point alu accesses (Count)
system.cpu.vecAluAccesses                           0                       # Number of vector alu accesses (Count)
system.cpu.numInsts                         358900867                       # Number of executed instructions (Count)
system.cpu.numLoadInsts                      86134959                       # Number of load instructions executed (Count)
system.cpu.numSquashedInsts                     20304                       # Number of squashed instructions skipped in execute (Count)
system.cpu.numSwp                                   0                       # Number of swp insts executed (Count)
system.cpu.numNop                                   0                       # Number of nop insts executed (Count)
system.cpu.numRefs                          172181665                       # Number of memory reference insts executed (Count)
system.cpu.numBranches                       14015738                       # Number of branches executed (Count)
system.cpu.numStoreInsts                     86046706                       # Number of stores executed (Count)
system.cpu.numRate                           0.364445                       # Inst execution rate ((Count/Cycle))
system.cpu.timesIdled                            1248                       # Number of times that the entire CPU went into an idle state and unscheduled itself (Count)
system.cpu.idleCycles                          271549                       # Total number of cycles that the CPU has spent unscheduled due to idling (Cycle)
system.cpu.committedInsts                    90027502                       # Number of Instructions Simulated (Count)
system.cpu.committedOps                     167526442                       # Number of Ops (including micro ops) Simulated (Count)
system.cpu.cpi                              10.938751                       # CPI: Cycles Per Instruction ((Cycle/Count))
system.cpu.totalCpi                         10.938751                       # CPI: Total CPI of All Threads ((Cycle/Count))
system.cpu.ipc                               0.091418                       # IPC: Instructions Per Cycle ((Count/Cycle))
system.cpu.totalIpc                          0.091418                       # IPC: Total IPC of All Threads ((Count/Cycle))
system.cpu.intRegfileReads                  284453726                       # Number of integer regfile reads (Count)
system.cpu.intRegfileWrites                  93757265                       # Number of integer regfile writes (Count)
system.cpu.fpRegfileReads                   152136242                       # Number of floating regfile reads (Count)
system.cpu.fpRegfileWrites                  118084519                       # Number of floating regfile writes (Count)
system.cpu.ccRegfileReads                    75951149                       # number of cc regfile reads (Count)
system.cpu.ccRegfileWrites                   79886401                       # number of cc regfile writes (Count)
system.cpu.miscRegfileReads                 204225177                       # number of misc regfile reads (Count)
system.cpu.miscRegfileWrites                       18                       # number of misc regfile writes (Count)
system.cpu.MemDepUnit__0.insertedLoads       86142993                       # Number of loads inserted to the mem dependence unit. (Count)
system.cpu.MemDepUnit__0.insertedStores      86050545                       # Number of stores inserted to the mem dependence unit. (Count)
system.cpu.MemDepUnit__0.conflictingLoads      1000926                       # Number of conflicting loads. (Count)
system.cpu.MemDepUnit__0.conflictingStores      1001008                       # Number of conflicting stores. (Count)
system.cpu.MemDepUnit__1.insertedLoads              0                       # Number of loads inserted to the mem dependence unit. (Count)
system.cpu.MemDepUnit__1.insertedStores             0                       # Number of stores inserted to the mem dependence unit. (Count)
system.cpu.MemDepUnit__1.conflictingLoads            0                       # Number of conflicting loads. (Count)
system.cpu.MemDepUnit__1.conflictingStores            0                       # Number of conflicting stores. (Count)
system.cpu.MemDepUnit__2.insertedLoads              0                       # Number of loads inserted to the mem dependence unit. (Count)
system.cpu.MemDepUnit__2.insertedStores             0                       # Number of stores inserted to the mem dependence unit. (Count)
system.cpu.MemDepUnit__2.conflictingLoads            0                       # Number of conflicting loads. (Count)
system.cpu.MemDepUnit__2.conflictingStores            0                       # Number of conflicting stores. (Count)
system.cpu.MemDepUnit__3.insertedLoads              0                       # Number of loads inserted to the mem dependence unit. (Count)
system.cpu.MemDepUnit__3.insertedStores             0                       # Number of stores inserted to the mem dependence unit. (Count)
system.cpu.MemDepUnit__3.conflictingLoads            0                       # Number of conflicting loads. (Count)
system.cpu.MemDepUnit__3.conflictingStores            0                       # Number of conflicting stores. (Count)
system.cpu.branchPred.lookups                16054488                       # Number of BP lookups (Count)
system.cpu.branchPred.condPredicted          16003456                       # Number of conditional branches predicted (Count)
system.cpu.branchPred.condIncorrect              6152                       # Number of conditional branches incorrect (Count)
system.cpu.branchPred.BTBLookups             12961108                       # Number of BTB lookups (Count)
system.cpu.branchPred.BTBHits                12958650                       # Number of BTB hits (Count)
system.cpu.branchPred.BTBHitRatio            0.999810                       # BTB Hit Ratio (Ratio)
system.cpu.branchPred.RASUsed                   16007                       # Number of times the RAS was used to get a target. (Count)
system.cpu.branchPred.RASIncorrect                 12                       # Number of incorrect RAS predictions. (Count)
system.cpu.branchPred.indirectLookups            7465                       # Number of indirect predictor lookups. (Count)
system.cpu.branchPred.indirectHits               5186                       # Number of indirect target hits. (Count)
system.cpu.branchPred.indirectMisses             2279                       # Number of indirect misses. (Count)
system.cpu.branchPred.indirectMispredicted          413                       # Number of mispredicted indirect branches. (Count)
system.cpu.commit.commitSquashedInsts       159870220                       # The number of squashed insts skipped by commit (Count)
system.cpu.commit.commitNonSpecStalls              22                       # The number of times commit has been forced to stall to communicate backwards (Count)
system.cpu.commit.branchMispredicts              5920                       # The number of times a branch was mispredicted (Count)
system.cpu.commit.numCommittedDist::samples    963463422                       # Number of insts commited each cycle (Count)
system.cpu.commit.numCommittedDist::mean     0.173879                       # Number of insts commited each cycle (Count)
system.cpu.commit.numCommittedDist::stdev     0.995797                       # Number of insts commited each cycle (Count)
system.cpu.commit.numCommittedDist::underflows            0      0.00%      0.00% # Number of insts commited each cycle (Count)
system.cpu.commit.numCommittedDist::0       919880638     95.48%     95.48% # Number of insts commited each cycle (Count)
system.cpu.commit.numCommittedDist::1        13076758      1.36%     96.83% # Number of insts commited each cycle (Count)
system.cpu.commit.numCommittedDist::2         7124500      0.74%     97.57% # Number of insts commited each cycle (Count)
system.cpu.commit.numCommittedDist::3         3338565      0.35%     97.92% # Number of insts commited each cycle (Count)
system.cpu.commit.numCommittedDist::4         5913437      0.61%     98.53% # Number of insts commited each cycle (Count)
system.cpu.commit.numCommittedDist::5         1752730      0.18%     98.72% # Number of insts commited each cycle (Count)
system.cpu.commit.numCommittedDist::6          520907      0.05%     98.77% # Number of insts commited each cycle (Count)
system.cpu.commit.numCommittedDist::7          204947      0.02%     98.79% # Number of insts commited each cycle (Count)
system.cpu.commit.numCommittedDist::8        11650940      1.21%    100.00% # Number of insts commited each cycle (Count)
system.cpu.commit.numCommittedDist::overflows            0      0.00%    100.00% # Number of insts commited each cycle (Count)
system.cpu.commit.numCommittedDist::min_value            0                       # Number of insts commited each cycle (Count)
system.cpu.commit.numCommittedDist::max_value            8                       # Number of insts commited each cycle (Count)
system.cpu.commit.numCommittedDist::total    963463422                       # Number of insts commited each cycle (Count)
system.cpu.commit.instsCommitted             90027502                       # Number of instructions committed (Count)
system.cpu.commit.opsCommitted              167526442                       # Number of ops (including micro ops) committed (Count)
system.cpu.commit.memRefs                    58113006                       # Number of memory references committed (Count)
system.cpu.commit.loads                      36081033                       # Number of loads committed (Count)
system.cpu.commit.amos                              0                       # Number of atomic instructions committed (Count)
system.cpu.commit.membars                           0                       # Number of memory barriers committed (Count)
system.cpu.commit.branches                    8975845                       # Number of branches committed (Count)
system.cpu.commit.vectorInstructions                0                       # Number of committed Vector instructions. (Count)
system.cpu.commit.floating                  100049137                       # Number of committed floating point instructions. (Count)
system.cpu.commit.integer                   121482535                       # Number of committed integer instructions. (Count)
system.cpu.commit.functionCalls                  6286                       # Number of function calls committed. (Count)
system.cpu.commit.committedInstType_0::No_OpClass         9326      0.01%      0.01% # Class of committed instruction (Count)
system.cpu.commit.committedInstType_0::IntAlu     71372548     42.60%     42.61% # Class of committed instruction (Count)
system.cpu.commit.committedInstType_0::IntMult          205      0.00%     42.61% # Class of committed instruction (Count)
system.cpu.commit.committedInstType_0::IntDiv         1619      0.00%     42.61% # Class of committed instruction (Count)
system.cpu.commit.committedInstType_0::FloatAdd     12002732      7.16%     49.78% # Class of committed instruction (Count)
system.cpu.commit.committedInstType_0::FloatCmp            0      0.00%     49.78% # Class of committed instruction (Count)
system.cpu.commit.committedInstType_0::FloatCvt           32      0.00%     49.78% # Class of committed instruction (Count)
system.cpu.commit.committedInstType_0::FloatMult            0      0.00%     49.78% # Class of committed instruction (Count)
system.cpu.commit.committedInstType_0::FloatMultAcc            0      0.00%     49.78% # Class of committed instruction (Count)
system.cpu.commit.committedInstType_0::FloatDiv            0      0.00%     49.78% # Class of committed instruction (Count)
system.cpu.commit.committedInstType_0::FloatMisc            0      0.00%     49.78% # Class of committed instruction (Count)
system.cpu.commit.committedInstType_0::FloatSqrt            0      0.00%     49.78% # Class of committed instruction (Count)
system.cpu.commit.committedInstType_0::SimdAdd          340      0.00%     49.78% # Class of committed instruction (Count)
system.cpu.commit.committedInstType_0::SimdAddAcc            0      0.00%     49.78% # Class of committed instruction (Count)
system.cpu.commit.committedInstType_0::SimdAlu        10239      0.01%     49.78% # Class of committed instruction (Count)
system.cpu.commit.committedInstType_0::SimdCmp            6      0.00%     49.78% # Class of committed instruction (Count)
system.cpu.commit.committedInstType_0::SimdCvt         1234      0.00%     49.78% # Class of committed instruction (Count)
system.cpu.commit.committedInstType_0::SimdMisc         1575      0.00%     49.78% # Class of committed instruction (Count)
system.cpu.commit.committedInstType_0::SimdMult            0      0.00%     49.78% # Class of committed instruction (Count)
system.cpu.commit.committedInstType_0::SimdMultAcc            0      0.00%     49.78% # Class of committed instruction (Count)
system.cpu.commit.committedInstType_0::SimdShift           99      0.00%     49.78% # Class of committed instruction (Count)
system.cpu.commit.committedInstType_0::SimdShiftAcc            0      0.00%     49.78% # Class of committed instruction (Count)
system.cpu.commit.committedInstType_0::SimdDiv            0      0.00%     49.78% # Class of committed instruction (Count)
system.cpu.commit.committedInstType_0::SimdSqrt            0      0.00%     49.78% # Class of committed instruction (Count)
system.cpu.commit.committedInstType_0::SimdFloatAdd     15004466      8.96%     58.74% # Class of committed instruction (Count)
system.cpu.commit.committedInstType_0::SimdFloatAlu            0      0.00%     58.74% # Class of committed instruction (Count)
system.cpu.commit.committedInstType_0::SimdFloatCmp           24      0.00%     58.74% # Class of committed instruction (Count)
system.cpu.commit.committedInstType_0::SimdFloatCvt      3006712      1.79%     60.53% # Class of committed instruction (Count)
system.cpu.commit.committedInstType_0::SimdFloatDiv           15      0.00%     60.53% # Class of committed instruction (Count)
system.cpu.commit.committedInstType_0::SimdFloatMisc            0      0.00%     60.53% # Class of committed instruction (Count)
system.cpu.commit.committedInstType_0::SimdFloatMult      8002264      4.78%     65.31% # Class of committed instruction (Count)
system.cpu.commit.committedInstType_0::SimdFloatMultAcc            0      0.00%     65.31% # Class of committed instruction (Count)
system.cpu.commit.committedInstType_0::SimdFloatSqrt            0      0.00%     65.31% # Class of committed instruction (Count)
system.cpu.commit.committedInstType_0::SimdReduceAdd            0      0.00%     65.31% # Class of committed instruction (Count)
system.cpu.commit.committedInstType_0::SimdReduceAlu            0      0.00%     65.31% # Class of committed instruction (Count)
system.cpu.commit.committedInstType_0::SimdReduceCmp            0      0.00%     65.31% # Class of committed instruction (Count)
system.cpu.commit.committedInstType_0::SimdFloatReduceAdd            0      0.00%     65.31% # Class of committed instruction (Count)
system.cpu.commit.committedInstType_0::SimdFloatReduceCmp            0      0.00%     65.31% # Class of committed instruction (Count)
system.cpu.commit.committedInstType_0::SimdAes            0      0.00%     65.31% # Class of committed instruction (Count)
system.cpu.commit.committedInstType_0::SimdAesMix            0      0.00%     65.31% # Class of committed instruction (Count)
system.cpu.commit.committedInstType_0::SimdSha1Hash            0      0.00%     65.31% # Class of committed instruction (Count)
system.cpu.commit.committedInstType_0::SimdSha1Hash2            0      0.00%     65.31% # Class of committed instruction (Count)
system.cpu.commit.committedInstType_0::SimdSha256Hash            0      0.00%     65.31% # Class of committed instruction (Count)
system.cpu.commit.committedInstType_0::SimdSha256Hash2            0      0.00%     65.31% # Class of committed instruction (Count)
system.cpu.commit.committedInstType_0::SimdShaSigma2            0      0.00%     65.31% # Class of committed instruction (Count)
system.cpu.commit.committedInstType_0::SimdShaSigma3            0      0.00%     65.31% # Class of committed instruction (Count)
system.cpu.commit.committedInstType_0::SimdPredAlu            0      0.00%     65.31% # Class of committed instruction (Count)
system.cpu.commit.committedInstType_0::MemRead      1068221      0.64%     65.95% # Class of committed instruction (Count)
system.cpu.commit.committedInstType_0::MemWrite      3030305      1.81%     67.76% # Class of committed instruction (Count)
system.cpu.commit.committedInstType_0::FloatMemRead     35012812     20.90%     88.66% # Class of committed instruction (Count)
system.cpu.commit.committedInstType_0::FloatMemWrite     19001668     11.34%    100.00% # Class of committed instruction (Count)
system.cpu.commit.committedInstType_0::IprAccess            0      0.00%    100.00% # Class of committed instruction (Count)
system.cpu.commit.committedInstType_0::InstPrefetch            0      0.00%    100.00% # Class of committed instruction (Count)
system.cpu.commit.committedInstType_0::total    167526442                       # Class of committed instruction (Count)
system.cpu.commit.commitEligibleSamples      11650940                       # number cycles where commit BW limit reached (Cycle)
system.cpu.dcache.demandHits::cpu.data       72401138                       # number of demand (read+write) hits (Count)
system.cpu.dcache.demandHits::total          72401138                       # number of demand (read+write) hits (Count)
system.cpu.dcache.overallHits::cpu.data      82889704                       # number of overall hits (Count)
system.cpu.dcache.overallHits::total         82889704                       # number of overall hits (Count)
system.cpu.dcache.demandMisses::cpu.data     22752712                       # number of demand (read+write) misses (Count)
system.cpu.dcache.demandMisses::total        22752712                       # number of demand (read+write) misses (Count)
system.cpu.dcache.overallMisses::cpu.data     23264006                       # number of overall misses (Count)
system.cpu.dcache.overallMisses::total       23264006                       # number of overall misses (Count)
system.cpu.dcache.demandMissLatency::cpu.data 651400312497                       # number of demand (read+write) miss ticks (Tick)
system.cpu.dcache.demandMissLatency::total 651400312497                       # number of demand (read+write) miss ticks (Tick)
system.cpu.dcache.overallMissLatency::cpu.data 651400312497                       # number of overall miss ticks (Tick)
system.cpu.dcache.overallMissLatency::total 651400312497                       # number of overall miss ticks (Tick)
system.cpu.dcache.demandAccesses::cpu.data     95153850                       # number of demand (read+write) accesses (Count)
system.cpu.dcache.demandAccesses::total      95153850                       # number of demand (read+write) accesses (Count)
system.cpu.dcache.overallAccesses::cpu.data    106153710                       # number of overall (read+write) accesses (Count)
system.cpu.dcache.overallAccesses::total    106153710                       # number of overall (read+write) accesses (Count)
system.cpu.dcache.demandMissRate::cpu.data     0.239115                       # miss rate for demand accesses (Ratio)
system.cpu.dcache.demandMissRate::total      0.239115                       # miss rate for demand accesses (Ratio)
system.cpu.dcache.overallMissRate::cpu.data     0.219154                       # miss rate for overall accesses (Ratio)
system.cpu.dcache.overallMissRate::total     0.219154                       # miss rate for overall accesses (Ratio)
system.cpu.dcache.demandAvgMissLatency::cpu.data 28629.567873                       # average overall miss latency in ticks ((Tick/Count))
system.cpu.dcache.demandAvgMissLatency::total 28629.567873                       # average overall miss latency in ticks ((Tick/Count))
system.cpu.dcache.overallAvgMissLatency::cpu.data 28000.350090                       # average overall miss latency ((Tick/Count))
system.cpu.dcache.overallAvgMissLatency::total 28000.350090                       # average overall miss latency ((Tick/Count))
system.cpu.dcache.blockedCycles::no_mshrs     18972437                       # number of cycles access was blocked (Cycle)
system.cpu.dcache.blockedCycles::no_targets            0                       # number of cycles access was blocked (Cycle)
system.cpu.dcache.blockedCauses::no_mshrs       941071                       # number of times access was blocked (Count)
system.cpu.dcache.blockedCauses::no_targets            0                       # number of times access was blocked (Count)
system.cpu.dcache.avgBlocked::no_mshrs      20.160474                       # average number of cycles each access was blocked ((Cycle/Count))
system.cpu.dcache.avgBlocked::no_targets          nan                       # average number of cycles each access was blocked ((Cycle/Count))
system.cpu.dcache.writebacks::writebacks      2500915                       # number of writebacks (Count)
system.cpu.dcache.writebacks::total           2500915                       # number of writebacks (Count)
system.cpu.dcache.demandMshrHits::cpu.data     17374294                       # number of demand (read+write) MSHR hits (Count)
system.cpu.dcache.demandMshrHits::total      17374294                       # number of demand (read+write) MSHR hits (Count)
system.cpu.dcache.overallMshrHits::cpu.data     17374294                       # number of overall MSHR hits (Count)
system.cpu.dcache.overallMshrHits::total     17374294                       # number of overall MSHR hits (Count)
system.cpu.dcache.demandMshrMisses::cpu.data      5378418                       # number of demand (read+write) MSHR misses (Count)
system.cpu.dcache.demandMshrMisses::total      5378418                       # number of demand (read+write) MSHR misses (Count)
system.cpu.dcache.overallMshrMisses::cpu.data      5878425                       # number of overall MSHR misses (Count)
system.cpu.dcache.overallMshrMisses::total      5878425                       # number of overall MSHR misses (Count)
system.cpu.dcache.demandMshrMissLatency::cpu.data 452380311998                       # number of demand (read+write) MSHR miss ticks (Tick)
system.cpu.dcache.demandMshrMissLatency::total 452380311998                       # number of demand (read+write) MSHR miss ticks (Tick)
system.cpu.dcache.overallMshrMissLatency::cpu.data 494264696748                       # number of overall MSHR miss ticks (Tick)
system.cpu.dcache.overallMshrMissLatency::total 494264696748                       # number of overall MSHR miss ticks (Tick)
system.cpu.dcache.demandMshrMissRate::cpu.data     0.056523                       # mshr miss ratio for demand accesses (Ratio)
system.cpu.dcache.demandMshrMissRate::total     0.056523                       # mshr miss ratio for demand accesses (Ratio)
system.cpu.dcache.overallMshrMissRate::cpu.data     0.055377                       # mshr miss ratio for overall accesses (Ratio)
system.cpu.dcache.overallMshrMissRate::total     0.055377                       # mshr miss ratio for overall accesses (Ratio)
system.cpu.dcache.demandAvgMshrMissLatency::cpu.data 84110.292654                       # average overall mshr miss latency ((Tick/Count))
system.cpu.dcache.demandAvgMshrMissLatency::total 84110.292654                       # average overall mshr miss latency ((Tick/Count))
system.cpu.dcache.overallAvgMshrMissLatency::cpu.data 84081.143631                       # average overall mshr miss latency ((Tick/Count))
system.cpu.dcache.overallAvgMshrMissLatency::total 84081.143631                       # average overall mshr miss latency ((Tick/Count))
system.cpu.dcache.replacements                5877397                       # number of replacements (Count)
system.cpu.dcache.ReadReq.hits::cpu.data     54744834                       # number of ReadReq hits (Count)
system.cpu.dcache.ReadReq.hits::total        54744834                       # number of ReadReq hits (Count)
system.cpu.dcache.ReadReq.misses::cpu.data     20377005                       # number of ReadReq misses (Count)
system.cpu.dcache.ReadReq.misses::total      20377005                       # number of ReadReq misses (Count)
system.cpu.dcache.ReadReq.missLatency::cpu.data 456949589250                       # number of ReadReq miss ticks (Tick)
system.cpu.dcache.ReadReq.missLatency::total 456949589250                       # number of ReadReq miss ticks (Tick)
system.cpu.dcache.ReadReq.accesses::cpu.data     75121839                       # number of ReadReq accesses(hits+misses) (Count)
system.cpu.dcache.ReadReq.accesses::total     75121839                       # number of ReadReq accesses(hits+misses) (Count)
system.cpu.dcache.ReadReq.missRate::cpu.data     0.271253                       # miss rate for ReadReq accesses (Ratio)
system.cpu.dcache.ReadReq.missRate::total     0.271253                       # miss rate for ReadReq accesses (Ratio)
system.cpu.dcache.ReadReq.avgMissLatency::cpu.data 22424.766998                       # average ReadReq miss latency ((Tick/Count))
system.cpu.dcache.ReadReq.avgMissLatency::total 22424.766998                       # average ReadReq miss latency ((Tick/Count))
system.cpu.dcache.ReadReq.mshrHits::cpu.data     17374281                       # number of ReadReq MSHR hits (Count)
system.cpu.dcache.ReadReq.mshrHits::total     17374281                       # number of ReadReq MSHR hits (Count)
system.cpu.dcache.ReadReq.mshrMisses::cpu.data      3002724                       # number of ReadReq MSHR misses (Count)
system.cpu.dcache.ReadReq.mshrMisses::total      3002724                       # number of ReadReq MSHR misses (Count)
system.cpu.dcache.ReadReq.mshrMissLatency::cpu.data 259117799000                       # number of ReadReq MSHR miss ticks (Tick)
system.cpu.dcache.ReadReq.mshrMissLatency::total 259117799000                       # number of ReadReq MSHR miss ticks (Tick)
system.cpu.dcache.ReadReq.mshrMissRate::cpu.data     0.039971                       # mshr miss rate for ReadReq accesses (Ratio)
system.cpu.dcache.ReadReq.mshrMissRate::total     0.039971                       # mshr miss rate for ReadReq accesses (Ratio)
system.cpu.dcache.ReadReq.avgMshrMissLatency::cpu.data 86294.244493                       # average ReadReq mshr miss latency ((Tick/Count))
system.cpu.dcache.ReadReq.avgMshrMissLatency::total 86294.244493                       # average ReadReq mshr miss latency ((Tick/Count))
system.cpu.dcache.SoftPFReq.hits::cpu.data     10488566                       # number of SoftPFReq hits (Count)
system.cpu.dcache.SoftPFReq.hits::total      10488566                       # number of SoftPFReq hits (Count)
system.cpu.dcache.SoftPFReq.misses::cpu.data       511294                       # number of SoftPFReq misses (Count)
system.cpu.dcache.SoftPFReq.misses::total       511294                       # number of SoftPFReq misses (Count)
system.cpu.dcache.SoftPFReq.accesses::cpu.data     10999860                       # number of SoftPFReq accesses(hits+misses) (Count)
system.cpu.dcache.SoftPFReq.accesses::total     10999860                       # number of SoftPFReq accesses(hits+misses) (Count)
system.cpu.dcache.SoftPFReq.missRate::cpu.data     0.046482                       # miss rate for SoftPFReq accesses (Ratio)
system.cpu.dcache.SoftPFReq.missRate::total     0.046482                       # miss rate for SoftPFReq accesses (Ratio)
system.cpu.dcache.SoftPFReq.mshrMisses::cpu.data       500007                       # number of SoftPFReq MSHR misses (Count)
system.cpu.dcache.SoftPFReq.mshrMisses::total       500007                       # number of SoftPFReq MSHR misses (Count)
system.cpu.dcache.SoftPFReq.mshrMissLatency::cpu.data  41884384750                       # number of SoftPFReq MSHR miss ticks (Tick)
system.cpu.dcache.SoftPFReq.mshrMissLatency::total  41884384750                       # number of SoftPFReq MSHR miss ticks (Tick)
system.cpu.dcache.SoftPFReq.mshrMissRate::cpu.data     0.045456                       # mshr miss rate for SoftPFReq accesses (Ratio)
system.cpu.dcache.SoftPFReq.mshrMissRate::total     0.045456                       # mshr miss rate for SoftPFReq accesses (Ratio)
system.cpu.dcache.SoftPFReq.avgMshrMissLatency::cpu.data 83767.596754                       # average SoftPFReq mshr miss latency ((Tick/Count))
system.cpu.dcache.SoftPFReq.avgMshrMissLatency::total 83767.596754                       # average SoftPFReq mshr miss latency ((Tick/Count))
system.cpu.dcache.WriteReq.hits::cpu.data     17656304                       # number of WriteReq hits (Count)
system.cpu.dcache.WriteReq.hits::total       17656304                       # number of WriteReq hits (Count)
system.cpu.dcache.WriteReq.misses::cpu.data      2375707                       # number of WriteReq misses (Count)
system.cpu.dcache.WriteReq.misses::total      2375707                       # number of WriteReq misses (Count)
system.cpu.dcache.WriteReq.missLatency::cpu.data 194450723247                       # number of WriteReq miss ticks (Tick)
system.cpu.dcache.WriteReq.missLatency::total 194450723247                       # number of WriteReq miss ticks (Tick)
system.cpu.dcache.WriteReq.accesses::cpu.data     20032011                       # number of WriteReq accesses(hits+misses) (Count)
system.cpu.dcache.WriteReq.accesses::total     20032011                       # number of WriteReq accesses(hits+misses) (Count)
system.cpu.dcache.WriteReq.missRate::cpu.data     0.118596                       # miss rate for WriteReq accesses (Ratio)
system.cpu.dcache.WriteReq.missRate::total     0.118596                       # miss rate for WriteReq accesses (Ratio)
system.cpu.dcache.WriteReq.avgMissLatency::cpu.data 81849.623395                       # average WriteReq miss latency ((Tick/Count))
system.cpu.dcache.WriteReq.avgMissLatency::total 81849.623395                       # average WriteReq miss latency ((Tick/Count))
system.cpu.dcache.WriteReq.mshrHits::cpu.data           13                       # number of WriteReq MSHR hits (Count)
system.cpu.dcache.WriteReq.mshrHits::total           13                       # number of WriteReq MSHR hits (Count)
system.cpu.dcache.WriteReq.mshrMisses::cpu.data      2375694                       # number of WriteReq MSHR misses (Count)
system.cpu.dcache.WriteReq.mshrMisses::total      2375694                       # number of WriteReq MSHR misses (Count)
system.cpu.dcache.WriteReq.mshrMissLatency::cpu.data 193262512998                       # number of WriteReq MSHR miss ticks (Tick)
system.cpu.dcache.WriteReq.mshrMissLatency::total 193262512998                       # number of WriteReq MSHR miss ticks (Tick)
system.cpu.dcache.WriteReq.mshrMissRate::cpu.data     0.118595                       # mshr miss rate for WriteReq accesses (Ratio)
system.cpu.dcache.WriteReq.mshrMissRate::total     0.118595                       # mshr miss rate for WriteReq accesses (Ratio)
system.cpu.dcache.WriteReq.avgMshrMissLatency::cpu.data 81349.918381                       # average WriteReq mshr miss latency ((Tick/Count))
system.cpu.dcache.WriteReq.avgMshrMissLatency::total 81349.918381                       # average WriteReq mshr miss latency ((Tick/Count))
system.cpu.dcache.power_state.pwrStateResidencyTicks::UNDEFINED 246197097250                       # Cumulative time (in ticks) in various power states (Tick)
system.cpu.dcache.tags.tagsInUse          1023.792826                       # Average ticks per tags in use ((Tick/Count))
system.cpu.dcache.tags.totalRefs             88768129                       # Total number of references to valid blocks. (Count)
system.cpu.dcache.tags.sampledRefs            5878421                       # Sample count of references to valid blocks. (Count)
system.cpu.dcache.tags.avgRefs              15.100676                       # Average number of references to valid blocks. ((Count/Count))
system.cpu.dcache.tags.warmupTick              168250                       # The tick when the warmup percentage was hit. (Tick)
system.cpu.dcache.tags.occupancies::cpu.data  1023.792826                       # Average occupied blocks per tick, per requestor ((Count/Tick))
system.cpu.dcache.tags.avgOccs::cpu.data     0.999798                       # Average percentage of cache occupancy ((Ratio/Tick))
system.cpu.dcache.tags.avgOccs::total        0.999798                       # Average percentage of cache occupancy ((Ratio/Tick))
system.cpu.dcache.tags.occupanciesTaskId::1024         1024                       # Occupied blocks per task id (Count)
system.cpu.dcache.tags.ageTaskId_1024::0          130                       # Occupied blocks per task id, per block age (Count)
system.cpu.dcache.tags.ageTaskId_1024::1          893                       # Occupied blocks per task id, per block age (Count)
system.cpu.dcache.tags.ageTaskId_1024::4            1                       # Occupied blocks per task id, per block age (Count)
system.cpu.dcache.tags.ratioOccsTaskId::1024            1                       # Ratio of occupied blocks and all blocks, per task id (Ratio)
system.cpu.dcache.tags.tagAccesses          218185841                       # Number of tag accesses (Count)
system.cpu.dcache.tags.dataAccesses         218185841                       # Number of data accesses (Count)
system.cpu.dcache.tags.power_state.pwrStateResidencyTicks::UNDEFINED 246197097250                       # Cumulative time (in ticks) in various power states (Tick)
system.cpu.decode.idleCycles                 11892030                       # Number of cycles decode is idle (Cycle)
system.cpu.decode.blockedCycles             918885131                       # Number of cycles decode is blocked (Cycle)
system.cpu.decode.runCycles                  38534230                       # Number of cycles decode is running (Cycle)
system.cpu.decode.unblockCycles              13197007                       # Number of cycles decode is unblocking (Cycle)
system.cpu.decode.squashCycles                2008443                       # Number of cycles decode is squashing (Cycle)
system.cpu.decode.branchResolved             11456532                       # Number of times decode resolved a branch (Count)
system.cpu.decode.branchMispred                   735                       # Number of times decode detected a branch misprediction (Count)
system.cpu.decode.decodedInsts              381592654                       # Number of instructions handled by decode (Count)
system.cpu.decode.squashedInsts                  3520                       # Number of squashed instructions handled by decode (Count)
system.cpu.dtb_walker_cache.blockedCycles::no_mshrs            0                       # number of cycles access was blocked (Cycle)
system.cpu.dtb_walker_cache.blockedCycles::no_targets            0                       # number of cycles access was blocked (Cycle)
system.cpu.dtb_walker_cache.blockedCauses::no_mshrs            0                       # number of times access was blocked (Count)
system.cpu.dtb_walker_cache.blockedCauses::no_targets            0                       # number of times access was blocked (Count)
system.cpu.dtb_walker_cache.avgBlocked::no_mshrs          nan                       # average number of cycles each access was blocked ((Cycle/Count))
system.cpu.dtb_walker_cache.avgBlocked::no_targets          nan                       # average number of cycles each access was blocked ((Cycle/Count))
system.cpu.dtb_walker_cache.replacements            0                       # number of replacements (Count)
system.cpu.dtb_walker_cache.power_state.pwrStateResidencyTicks::UNDEFINED 246197097250                       # Cumulative time (in ticks) in various power states (Tick)
system.cpu.dtb_walker_cache.tags.tagsInUse            0                       # Average ticks per tags in use ((Tick/Count))
system.cpu.dtb_walker_cache.tags.totalRefs            0                       # Total number of references to valid blocks. (Count)
system.cpu.dtb_walker_cache.tags.sampledRefs            0                       # Sample count of references to valid blocks. (Count)
system.cpu.dtb_walker_cache.tags.avgRefs          nan                       # Average number of references to valid blocks. ((Count/Count))
system.cpu.dtb_walker_cache.tags.warmupTick            0                       # The tick when the warmup percentage was hit. (Tick)
system.cpu.dtb_walker_cache.tags.tagAccesses            0                       # Number of tag accesses (Count)
system.cpu.dtb_walker_cache.tags.dataAccesses            0                       # Number of data accesses (Count)
system.cpu.dtb_walker_cache.tags.power_state.pwrStateResidencyTicks::UNDEFINED 246197097250                       # Cumulative time (in ticks) in various power states (Tick)
system.cpu.fetch.icacheStallCycles           23593954                       # Number of cycles fetch is stalled on an Icache miss (Cycle)
system.cpu.fetch.insts                      203362588                       # Number of instructions fetch has processed (Count)
system.cpu.fetch.branches                    16054488                       # Number of branches that fetch encountered (Count)
system.cpu.fetch.predictedBranches           12979843                       # Number of branches that fetch has predicted taken (Count)
system.cpu.fetch.cycles                     958909447                       # Number of cycles fetch has run and was not squashing or blocked (Cycle)
system.cpu.fetch.squashCycles                 4018342                       # Number of cycles fetch has spent squashing (Cycle)
system.cpu.fetch.miscStallCycles                  543                       # Number of cycles fetch has spent waiting on interrupts, or bad addresses, or out of MSHRs (Cycle)
system.cpu.fetch.pendingTrapStallCycles          3693                       # Number of stall cycles due to pending traps (Cycle)
system.cpu.fetch.icacheWaitRetryStallCycles           33                       # Number of stall cycles due to full MSHR (Cycle)
system.cpu.fetch.cacheLines                  23508555                       # Number of cache lines fetched (Count)
system.cpu.fetch.icacheSquashes                  4228                       # Number of outstanding Icache misses that were squashed (Count)
system.cpu.fetch.nisnDist::samples          984516841                       # Number of instructions fetched each cycle (Total) (Count)
system.cpu.fetch.nisnDist::mean              0.460293                       # Number of instructions fetched each cycle (Total) (Count)
system.cpu.fetch.nisnDist::stdev             1.745246                       # Number of instructions fetched each cycle (Total) (Count)
system.cpu.fetch.nisnDist::underflows               0      0.00%      0.00% # Number of instructions fetched each cycle (Total) (Count)
system.cpu.fetch.nisnDist::0                909400519     92.37%     92.37% # Number of instructions fetched each cycle (Total) (Count)
system.cpu.fetch.nisnDist::1                  5783487      0.59%     92.96% # Number of instructions fetched each cycle (Total) (Count)
system.cpu.fetch.nisnDist::2                  5222976      0.53%     93.49% # Number of instructions fetched each cycle (Total) (Count)
system.cpu.fetch.nisnDist::3                  2164734      0.22%     93.71% # Number of instructions fetched each cycle (Total) (Count)
system.cpu.fetch.nisnDist::4                 12742470      1.29%     95.00% # Number of instructions fetched each cycle (Total) (Count)
system.cpu.fetch.nisnDist::5                  2510691      0.26%     95.26% # Number of instructions fetched each cycle (Total) (Count)
system.cpu.fetch.nisnDist::6                  2733532      0.28%     95.54% # Number of instructions fetched each cycle (Total) (Count)
system.cpu.fetch.nisnDist::7                  1149149      0.12%     95.65% # Number of instructions fetched each cycle (Total) (Count)
system.cpu.fetch.nisnDist::8                 42809283      4.35%    100.00% # Number of instructions fetched each cycle (Total) (Count)
system.cpu.fetch.nisnDist::overflows                0      0.00%    100.00% # Number of instructions fetched each cycle (Total) (Count)
system.cpu.fetch.nisnDist::min_value                0                       # Number of instructions fetched each cycle (Total) (Count)
system.cpu.fetch.nisnDist::max_value                8                       # Number of instructions fetched each cycle (Total) (Count)
system.cpu.fetch.nisnDist::total            984516841                       # Number of instructions fetched each cycle (Total) (Count)
system.cpu.fetch.branchRate                  0.016302                       # Number of branch fetches per cycle (Ratio)
system.cpu.fetch.rate                        0.206504                       # Number of inst fetches per cycle ((Count/Cycle))
system.cpu.icache.demandHits::cpu.inst       23505986                       # number of demand (read+write) hits (Count)
system.cpu.icache.demandHits::total          23505986                       # number of demand (read+write) hits (Count)
system.cpu.icache.overallHits::cpu.inst      23505986                       # number of overall hits (Count)
system.cpu.icache.overallHits::total         23505986                       # number of overall hits (Count)
system.cpu.icache.demandMisses::cpu.inst         2569                       # number of demand (read+write) misses (Count)
system.cpu.icache.demandMisses::total            2569                       # number of demand (read+write) misses (Count)
system.cpu.icache.overallMisses::cpu.inst         2569                       # number of overall misses (Count)
system.cpu.icache.overallMisses::total           2569                       # number of overall misses (Count)
system.cpu.icache.demandMissLatency::cpu.inst    163885749                       # number of demand (read+write) miss ticks (Tick)
system.cpu.icache.demandMissLatency::total    163885749                       # number of demand (read+write) miss ticks (Tick)
system.cpu.icache.overallMissLatency::cpu.inst    163885749                       # number of overall miss ticks (Tick)
system.cpu.icache.overallMissLatency::total    163885749                       # number of overall miss ticks (Tick)
system.cpu.icache.demandAccesses::cpu.inst     23508555                       # number of demand (read+write) accesses (Count)
system.cpu.icache.demandAccesses::total      23508555                       # number of demand (read+write) accesses (Count)
system.cpu.icache.overallAccesses::cpu.inst     23508555                       # number of overall (read+write) accesses (Count)
system.cpu.icache.overallAccesses::total     23508555                       # number of overall (read+write) accesses (Count)
system.cpu.icache.demandMissRate::cpu.inst     0.000109                       # miss rate for demand accesses (Ratio)
system.cpu.icache.demandMissRate::total      0.000109                       # miss rate for demand accesses (Ratio)
system.cpu.icache.overallMissRate::cpu.inst     0.000109                       # miss rate for overall accesses (Ratio)
system.cpu.icache.overallMissRate::total     0.000109                       # miss rate for overall accesses (Ratio)
system.cpu.icache.demandAvgMissLatency::cpu.inst 63793.596341                       # average overall miss latency in ticks ((Tick/Count))
system.cpu.icache.demandAvgMissLatency::total 63793.596341                       # average overall miss latency in ticks ((Tick/Count))
system.cpu.icache.overallAvgMissLatency::cpu.inst 63793.596341                       # average overall miss latency ((Tick/Count))
system.cpu.icache.overallAvgMissLatency::total 63793.596341                       # average overall miss latency ((Tick/Count))
system.cpu.icache.blockedCycles::no_mshrs          676                       # number of cycles access was blocked (Cycle)
system.cpu.icache.blockedCycles::no_targets            0                       # number of cycles access was blocked (Cycle)
system.cpu.icache.blockedCauses::no_mshrs            7                       # number of times access was blocked (Count)
system.cpu.icache.blockedCauses::no_targets            0                       # number of times access was blocked (Count)
system.cpu.icache.avgBlocked::no_mshrs      96.571429                       # average number of cycles each access was blocked ((Cycle/Count))
system.cpu.icache.avgBlocked::no_targets          nan                       # average number of cycles each access was blocked ((Cycle/Count))
system.cpu.icache.writebacks::writebacks         1520                       # number of writebacks (Count)
system.cpu.icache.writebacks::total              1520                       # number of writebacks (Count)
system.cpu.icache.demandMshrHits::cpu.inst          532                       # number of demand (read+write) MSHR hits (Count)
system.cpu.icache.demandMshrHits::total           532                       # number of demand (read+write) MSHR hits (Count)
system.cpu.icache.overallMshrHits::cpu.inst          532                       # number of overall MSHR hits (Count)
system.cpu.icache.overallMshrHits::total          532                       # number of overall MSHR hits (Count)
system.cpu.icache.demandMshrMisses::cpu.inst         2037                       # number of demand (read+write) MSHR misses (Count)
system.cpu.icache.demandMshrMisses::total         2037                       # number of demand (read+write) MSHR misses (Count)
system.cpu.icache.overallMshrMisses::cpu.inst         2037                       # number of overall MSHR misses (Count)
system.cpu.icache.overallMshrMisses::total         2037                       # number of overall MSHR misses (Count)
system.cpu.icache.demandMshrMissLatency::cpu.inst    127687499                       # number of demand (read+write) MSHR miss ticks (Tick)
system.cpu.icache.demandMshrMissLatency::total    127687499                       # number of demand (read+write) MSHR miss ticks (Tick)
system.cpu.icache.overallMshrMissLatency::cpu.inst    127687499                       # number of overall MSHR miss ticks (Tick)
system.cpu.icache.overallMshrMissLatency::total    127687499                       # number of overall MSHR miss ticks (Tick)
system.cpu.icache.demandMshrMissRate::cpu.inst     0.000087                       # mshr miss ratio for demand accesses (Ratio)
system.cpu.icache.demandMshrMissRate::total     0.000087                       # mshr miss ratio for demand accesses (Ratio)
system.cpu.icache.overallMshrMissRate::cpu.inst     0.000087                       # mshr miss ratio for overall accesses (Ratio)
system.cpu.icache.overallMshrMissRate::total     0.000087                       # mshr miss ratio for overall accesses (Ratio)
system.cpu.icache.demandAvgMshrMissLatency::cpu.inst 62684.093765                       # average overall mshr miss latency ((Tick/Count))
system.cpu.icache.demandAvgMshrMissLatency::total 62684.093765                       # average overall mshr miss latency ((Tick/Count))
system.cpu.icache.overallAvgMshrMissLatency::cpu.inst 62684.093765                       # average overall mshr miss latency ((Tick/Count))
system.cpu.icache.overallAvgMshrMissLatency::total 62684.093765                       # average overall mshr miss latency ((Tick/Count))
system.cpu.icache.replacements                   1520                       # number of replacements (Count)
system.cpu.icache.ReadReq.hits::cpu.inst     23505986                       # number of ReadReq hits (Count)
system.cpu.icache.ReadReq.hits::total        23505986                       # number of ReadReq hits (Count)
system.cpu.icache.ReadReq.misses::cpu.inst         2569                       # number of ReadReq misses (Count)
system.cpu.icache.ReadReq.misses::total          2569                       # number of ReadReq misses (Count)
system.cpu.icache.ReadReq.missLatency::cpu.inst    163885749                       # number of ReadReq miss ticks (Tick)
system.cpu.icache.ReadReq.missLatency::total    163885749                       # number of ReadReq miss ticks (Tick)
system.cpu.icache.ReadReq.accesses::cpu.inst     23508555                       # number of ReadReq accesses(hits+misses) (Count)
system.cpu.icache.ReadReq.accesses::total     23508555                       # number of ReadReq accesses(hits+misses) (Count)
system.cpu.icache.ReadReq.missRate::cpu.inst     0.000109                       # miss rate for ReadReq accesses (Ratio)
system.cpu.icache.ReadReq.missRate::total     0.000109                       # miss rate for ReadReq accesses (Ratio)
system.cpu.icache.ReadReq.avgMissLatency::cpu.inst 63793.596341                       # average ReadReq miss latency ((Tick/Count))
system.cpu.icache.ReadReq.avgMissLatency::total 63793.596341                       # average ReadReq miss latency ((Tick/Count))
system.cpu.icache.ReadReq.mshrHits::cpu.inst          532                       # number of ReadReq MSHR hits (Count)
system.cpu.icache.ReadReq.mshrHits::total          532                       # number of ReadReq MSHR hits (Count)
system.cpu.icache.ReadReq.mshrMisses::cpu.inst         2037                       # number of ReadReq MSHR misses (Count)
system.cpu.icache.ReadReq.mshrMisses::total         2037                       # number of ReadReq MSHR misses (Count)
system.cpu.icache.ReadReq.mshrMissLatency::cpu.inst    127687499                       # number of ReadReq MSHR miss ticks (Tick)
system.cpu.icache.ReadReq.mshrMissLatency::total    127687499                       # number of ReadReq MSHR miss ticks (Tick)
system.cpu.icache.ReadReq.mshrMissRate::cpu.inst     0.000087                       # mshr miss rate for ReadReq accesses (Ratio)
system.cpu.icache.ReadReq.mshrMissRate::total     0.000087                       # mshr miss rate for ReadReq accesses (Ratio)
system.cpu.icache.ReadReq.avgMshrMissLatency::cpu.inst 62684.093765                       # average ReadReq mshr miss latency ((Tick/Count))
system.cpu.icache.ReadReq.avgMshrMissLatency::total 62684.093765                       # average ReadReq mshr miss latency ((Tick/Count))
system.cpu.icache.power_state.pwrStateResidencyTicks::UNDEFINED 246197097250                       # Cumulative time (in ticks) in various power states (Tick)
system.cpu.icache.tags.tagsInUse           502.527804                       # Average ticks per tags in use ((Tick/Count))
system.cpu.icache.tags.totalRefs             23508022                       # Total number of references to valid blocks. (Count)
system.cpu.icache.tags.sampledRefs               2036                       # Sample count of references to valid blocks. (Count)
system.cpu.icache.tags.avgRefs           11546.179764                       # Average number of references to valid blocks. ((Count/Count))
system.cpu.icache.tags.warmupTick               85250                       # The tick when the warmup percentage was hit. (Tick)
system.cpu.icache.tags.occupancies::cpu.inst   502.527804                       # Average occupied blocks per tick, per requestor ((Count/Tick))
system.cpu.icache.tags.avgOccs::cpu.inst     0.981500                       # Average percentage of cache occupancy ((Ratio/Tick))
system.cpu.icache.tags.avgOccs::total        0.981500                       # Average percentage of cache occupancy ((Ratio/Tick))
system.cpu.icache.tags.occupanciesTaskId::1024          509                       # Occupied blocks per task id (Count)
system.cpu.icache.tags.ageTaskId_1024::0          129                       # Occupied blocks per task id, per block age (Count)
system.cpu.icache.tags.ageTaskId_1024::1            1                       # Occupied blocks per task id, per block age (Count)
system.cpu.icache.tags.ageTaskId_1024::4          379                       # Occupied blocks per task id, per block age (Count)
system.cpu.icache.tags.ratioOccsTaskId::1024     0.994141                       # Ratio of occupied blocks and all blocks, per task id (Ratio)
system.cpu.icache.tags.tagAccesses           47019146                       # Number of tag accesses (Count)
system.cpu.icache.tags.dataAccesses          47019146                       # Number of data accesses (Count)
system.cpu.icache.tags.power_state.pwrStateResidencyTicks::UNDEFINED 246197097250                       # Cumulative time (in ticks) in various power states (Tick)
system.cpu.iew.idleCycles                           0                       # Number of cycles IEW is idle (Cycle)
system.cpu.iew.squashCycles                   2008443                       # Number of cycles IEW is squashing (Cycle)
system.cpu.iew.blockCycles                   54332166                       # Number of cycles IEW is blocking (Cycle)
system.cpu.iew.unblockCycles                200120123                       # Number of cycles IEW is unblocking (Cycle)
system.cpu.iew.dispatchedInsts              358996557                       # Number of instructions dispatched to IQ (Count)
system.cpu.iew.dispSquashedInsts                  512                       # Number of squashed instructions skipped by dispatch (Count)
system.cpu.iew.dispLoadInsts                 86142993                       # Number of dispatched load instructions (Count)
system.cpu.iew.dispStoreInsts                86050545                       # Number of dispatched store instructions (Count)
system.cpu.iew.dispNonSpecInsts                    24                       # Number of dispatched non-speculative instructions (Count)
system.cpu.iew.iqFullEvents                    126171                       # Number of times the IQ has become full, causing a stall (Count)
system.cpu.iew.lsqFullEvents                200184942                       # Number of times the LSQ has become full, causing a stall (Count)
system.cpu.iew.memOrderViolationEvents            160                       # Number of memory order violations (Count)
system.cpu.iew.predictedTakenIncorrect           2248                       # Number of branches that were predicted taken incorrectly (Count)
system.cpu.iew.predictedNotTakenIncorrect         4858                       # Number of branches that were predicted not taken incorrectly (Count)
system.cpu.iew.branchMispredicts                 7106                       # Number of branch mispredicts detected at execute (Count)
system.cpu.iew.instsToCommit                358891909                       # Cumulative count of insts sent to commit (Count)
system.cpu.iew.writebackCount               336885103                       # Cumulative count of insts written-back (Count)
system.cpu.iew.producerInst                 178551143                       # Number of instructions producing a value (Count)
system.cpu.iew.consumerInst                 231804178                       # Number of instructions consuming a value (Count)
system.cpu.iew.wbRate                        0.342089                       # Insts written-back per cycle ((Count/Cycle))
system.cpu.iew.wbFanout                      0.770267                       # Average fanout of values written-back ((Count/Count))
system.cpu.interrupts.clk_domain.clock           4000                       # Clock period in ticks (Tick)
system.cpu.itb_walker_cache.blockedCycles::no_mshrs            0                       # number of cycles access was blocked (Cycle)
system.cpu.itb_walker_cache.blockedCycles::no_targets            0                       # number of cycles access was blocked (Cycle)
system.cpu.itb_walker_cache.blockedCauses::no_mshrs            0                       # number of times access was blocked (Count)
system.cpu.itb_walker_cache.blockedCauses::no_targets            0                       # number of times access was blocked (Count)
system.cpu.itb_walker_cache.avgBlocked::no_mshrs          nan                       # average number of cycles each access was blocked ((Cycle/Count))
system.cpu.itb_walker_cache.avgBlocked::no_targets          nan                       # average number of cycles each access was blocked ((Cycle/Count))
system.cpu.itb_walker_cache.replacements            0                       # number of replacements (Count)
system.cpu.itb_walker_cache.power_state.pwrStateResidencyTicks::UNDEFINED 246197097250                       # Cumulative time (in ticks) in various power states (Tick)
system.cpu.itb_walker_cache.tags.tagsInUse            0                       # Average ticks per tags in use ((Tick/Count))
system.cpu.itb_walker_cache.tags.totalRefs            0                       # Total number of references to valid blocks. (Count)
system.cpu.itb_walker_cache.tags.sampledRefs            0                       # Sample count of references to valid blocks. (Count)
system.cpu.itb_walker_cache.tags.avgRefs          nan                       # Average number of references to valid blocks. ((Count/Count))
system.cpu.itb_walker_cache.tags.warmupTick            0                       # The tick when the warmup percentage was hit. (Tick)
system.cpu.itb_walker_cache.tags.tagAccesses            0                       # Number of tag accesses (Count)
system.cpu.itb_walker_cache.tags.dataAccesses            0                       # Number of data accesses (Count)
system.cpu.itb_walker_cache.tags.power_state.pwrStateResidencyTicks::UNDEFINED 246197097250                       # Cumulative time (in ticks) in various power states (Tick)
system.cpu.lsq0.forwLoads                        8527                       # Number of loads that had data forwarded from stores (Count)
system.cpu.lsq0.squashedLoads                50061960                       # Number of loads squashed (Count)
system.cpu.lsq0.ignoredResponses                   30                       # Number of memory responses ignored because the instruction is squashed (Count)
system.cpu.lsq0.memOrderViolation                 160                       # Number of memory ordering violations (Count)
system.cpu.lsq0.squashedStores               64018572                       # Number of stores squashed (Count)
system.cpu.lsq0.rescheduledLoads                   11                       # Number of loads that were rescheduled (Count)
system.cpu.lsq0.blockedByCache                   2503                       # Number of times an access to memory failed due to the cache being blocked (Count)
[...]
system.mem_ctrls9.dram.rank0.averagePower            0                       # Core power per rank (mW) (Watt)
system.mem_ctrls9.dram.rank0.totalIdleTime            0                       # Total Idle time Per DRAM Rank (Tick)
system.mem_ctrls9.dram.rank0.pwrStateTime::IDLE 188785106630                       # Time in different power states (Tick)
system.mem_ctrls9.dram.rank0.pwrStateTime::REF  13937880000                       # Time in different power states (Tick)
system.mem_ctrls9.dram.rank0.pwrStateTime::SREF            0                       # Time in different power states (Tick)
system.mem_ctrls9.dram.rank0.pwrStateTime::PRE_PDN            0                       # Time in different power states (Tick)
system.mem_ctrls9.dram.rank0.pwrStateTime::ACT  43474110620                       # Time in different power states (Tick)
system.mem_ctrls9.dram.rank0.pwrStateTime::ACT_PDN            0                       # Time in different power states (Tick)
system.mem_ctrls9.power_state.pwrStateResidencyTicks::UNDEFINED 246197097250                       # Cumulative time (in ticks) in various power states (Tick)
system.membus.transDist::ReadResp             3503974                       # Transaction distribution (Count)
system.membus.transDist::WritebackDirty       2500738                       # Transaction distribution (Count)
system.membus.transDist::CleanEvict           3345727                       # Transaction distribution (Count)
system.membus.transDist::ReadExReq            2375644                       # Transaction distribution (Count)
system.membus.transDist::ReadExResp           2375644                       # Transaction distribution (Count)
system.membus.transDist::ReadSharedReq        3503974                       # Transaction distribution (Count)
system.membus.pktCount_system.l2.mem_side_port::system.mem_ctrls00.port      1100343                       # Packet count per connected requestor and responder (Count)
system.membus.pktCount_system.l2.mem_side_port::system.mem_ctrls01.port      1100383                       # Packet count per connected requestor and responder (Count)
system.membus.pktCount_system.l2.mem_side_port::system.mem_ctrls02.port      1100468                       # Packet count per connected requestor and responder (Count)
system.membus.pktCount_system.l2.mem_side_port::system.mem_ctrls03.port      1100375                       # Packet count per connected requestor and responder (Count)
system.membus.pktCount_system.l2.mem_side_port::system.mem_ctrls04.port      1100419                       # Packet count per connected requestor and responder (Count)
system.membus.pktCount_system.l2.mem_side_port::system.mem_ctrls05.port      1100368                       # Packet count per connected requestor and responder (Count)
system.membus.pktCount_system.l2.mem_side_port::system.mem_ctrls06.port      1100347                       # Packet count per connected requestor and responder (Count)
system.membus.pktCount_system.l2.mem_side_port::system.mem_ctrls07.port      1100427                       # Packet count per connected requestor and responder (Count)
system.membus.pktCount_system.l2.mem_side_port::system.mem_ctrls08.port      1100373                       # Packet count per connected requestor and responder (Count)
system.membus.pktCount_system.l2.mem_side_port::system.mem_ctrls09.port      1100401                       # Packet count per connected requestor and responder (Count)
system.membus.pktCount_system.l2.mem_side_port::system.mem_ctrls10.port      1100339                       # Packet count per connected requestor and responder (Count)
system.membus.pktCount_system.l2.mem_side_port::system.mem_ctrls11.port      1100229                       # Packet count per connected requestor and responder (Count)
system.membus.pktCount_system.l2.mem_side_port::system.mem_ctrls12.port      1100273                       # Packet count per connected requestor and responder (Count)
system.membus.pktCount_system.l2.mem_side_port::system.mem_ctrls13.port      1100296                       # Packet count per connected requestor and responder (Count)
system.membus.pktCount_system.l2.mem_side_port::system.mem_ctrls14.port      1100333                       # Packet count per connected requestor and responder (Count)
system.membus.pktCount_system.l2.mem_side_port::system.mem_ctrls15.port      1100327                       # Packet count per connected requestor and responder (Count)
system.membus.pktCount_system.l2.mem_side_port::total     17605701                       # Packet count per connected requestor and responder (Count)
system.membus.pktCount::total                17605701                       # Packet count per connected requestor and responder (Count)
system.membus.pktSize_system.l2.mem_side_port::system.mem_ctrls00.port     33521536                       # Cumulative packet size per connected requestor and responder (Byte)
system.membus.pktSize_system.l2.mem_side_port::system.mem_ctrls01.port     33522432                       # Cumulative packet size per connected requestor and responder (Byte)
system.membus.pktSize_system.l2.mem_side_port::system.mem_ctrls02.port     33525184                       # Cumulative packet size per connected requestor and responder (Byte)
system.membus.pktSize_system.l2.mem_side_port::system.mem_ctrls03.port     33522176                       # Cumulative packet size per connected requestor and responder (Byte)
system.membus.pktSize_system.l2.mem_side_port::system.mem_ctrls04.port     33522880                       # Cumulative packet size per connected requestor and responder (Byte)
system.membus.pktSize_system.l2.mem_side_port::system.mem_ctrls05.port     33521728                       # Cumulative packet size per connected requestor and responder (Byte)
system.membus.pktSize_system.l2.mem_side_port::system.mem_ctrls06.port     33521216                       # Cumulative packet size per connected requestor and responder (Byte)
system.membus.pktSize_system.l2.mem_side_port::system.mem_ctrls07.port     33522816                       # Cumulative packet size per connected requestor and responder (Byte)
system.membus.pktSize_system.l2.mem_side_port::system.mem_ctrls08.port     33521856                       # Cumulative packet size per connected requestor and responder (Byte)
system.membus.pktSize_system.l2.mem_side_port::system.mem_ctrls09.port     33522432                       # Cumulative packet size per connected requestor and responder (Byte)
system.membus.pktSize_system.l2.mem_side_port::system.mem_ctrls10.port     33521408                       # Cumulative packet size per connected requestor and responder (Byte)
system.membus.pktSize_system.l2.mem_side_port::system.mem_ctrls11.port     33518272                       # Cumulative packet size per connected requestor and responder (Byte)
system.membus.pktSize_system.l2.mem_side_port::system.mem_ctrls12.port     33518784                       # Cumulative packet size per connected requestor and responder (Byte)
system.membus.pktSize_system.l2.mem_side_port::system.mem_ctrls13.port     33519552                       # Cumulative packet size per connected requestor and responder (Byte)
system.membus.pktSize_system.l2.mem_side_port::system.mem_ctrls14.port     33520128                       # Cumulative packet size per connected requestor and responder (Byte)
system.membus.pktSize_system.l2.mem_side_port::system.mem_ctrls15.port     33520384                       # Cumulative packet size per connected requestor and responder (Byte)
system.membus.pktSize_system.l2.mem_side_port::total    536342784                       # Cumulative packet size per connected requestor and responder (Byte)
system.membus.pktSize::total                536342784                       # Cumulative packet size per connected requestor and responder (Byte)
system.membus.snoops                                0                       # Total snoops (Count)
system.membus.snoopTraffic                          0                       # Total snoop traffic (Byte)
system.membus.snoopFanout::samples            5879618                       # Request fanout histogram (Count)
system.membus.snoopFanout::mean                     0                       # Request fanout histogram (Count)
system.membus.snoopFanout::stdev                    0                       # Request fanout histogram (Count)
system.membus.snoopFanout::underflows               0      0.00%      0.00% # Request fanout histogram (Count)
system.membus.snoopFanout::0                  5879618    100.00%    100.00% # Request fanout histogram (Count)
system.membus.snoopFanout::1                        0      0.00%    100.00% # Request fanout histogram (Count)
system.membus.snoopFanout::overflows                0      0.00%    100.00% # Request fanout histogram (Count)
system.membus.snoopFanout::min_value                0                       # Request fanout histogram (Count)
system.membus.snoopFanout::max_value                0                       # Request fanout histogram (Count)
system.membus.snoopFanout::total              5879618                       # Request fanout histogram (Count)
system.membus.power_state.pwrStateResidencyTicks::UNDEFINED 246197097250                       # Cumulative time (in ticks) in various power states (Tick)
system.membus.reqLayer10.occupancy         1528962862                       # Layer occupancy (ticks) (Tick)
system.membus.reqLayer10.utilization              0.0                       # Layer utilization (Ratio)
system.membus.reqLayer11.occupancy         1529402662                       # Layer occupancy (ticks) (Tick)
system.membus.reqLayer11.utilization              0.0                       # Layer utilization (Ratio)
system.membus.reqLayer12.occupancy         1529043790                       # Layer occupancy (ticks) (Tick)
system.membus.reqLayer12.utilization              0.0                       # Layer utilization (Ratio)
system.membus.reqLayer13.occupancy         1529992542                       # Layer occupancy (ticks) (Tick)
system.membus.reqLayer13.utilization              0.0                       # Layer utilization (Ratio)
system.membus.reqLayer14.occupancy         1528982465                       # Layer occupancy (ticks) (Tick)
system.membus.reqLayer14.utilization              0.0                       # Layer utilization (Ratio)
system.membus.reqLayer15.occupancy         1530155202                       # Layer occupancy (ticks) (Tick)
system.membus.reqLayer15.utilization              0.0                       # Layer utilization (Ratio)
system.membus.reqLayer16.occupancy         1528777505                       # Layer occupancy (ticks) (Tick)
system.membus.reqLayer16.utilization              0.0                       # Layer utilization (Ratio)
system.membus.reqLayer17.occupancy         1529598377                       # Layer occupancy (ticks) (Tick)
system.membus.reqLayer17.utilization              0.0                       # Layer utilization (Ratio)
system.membus.reqLayer2.occupancy          1529198050                       # Layer occupancy (ticks) (Tick)
system.membus.reqLayer2.utilization               0.0                       # Layer utilization (Ratio)
system.membus.reqLayer3.occupancy          1529799191                       # Layer occupancy (ticks) (Tick)
system.membus.reqLayer3.utilization               0.0                       # Layer utilization (Ratio)
system.membus.reqLayer4.occupancy          1528990042                       # Layer occupancy (ticks) (Tick)
system.membus.reqLayer4.utilization               0.0                       # Layer utilization (Ratio)
system.membus.reqLayer5.occupancy          1530030800                       # Layer occupancy (ticks) (Tick)
system.membus.reqLayer5.utilization               0.0                       # Layer utilization (Ratio)
system.membus.reqLayer6.occupancy          1529078144                       # Layer occupancy (ticks) (Tick)
system.membus.reqLayer6.utilization               0.0                       # Layer utilization (Ratio)
system.membus.reqLayer7.occupancy          1529985211                       # Layer occupancy (ticks) (Tick)
system.membus.reqLayer7.utilization               0.0                       # Layer utilization (Ratio)
system.membus.reqLayer8.occupancy          1528643458                       # Layer occupancy (ticks) (Tick)
system.membus.reqLayer8.utilization               0.0                       # Layer utilization (Ratio)
system.membus.reqLayer9.occupancy          1530124681                       # Layer occupancy (ticks) (Tick)
system.membus.reqLayer9.utilization               0.0                       # Layer utilization (Ratio)
system.membus.respLayer1.occupancy        29439944250                       # Layer occupancy (ticks) (Tick)
system.membus.respLayer1.utilization              0.1                       # Layer utilization (Ratio)
system.membus.snoop_filter.totRequests       11726083                       # Total number of requests made to the snoop filter. (Count)
system.membus.snoop_filter.hitSingleRequests      5846471                       # Number of requests hitting in the snoop filter with a single holder of the requested data. (Count)
system.membus.snoop_filter.hitMultiRequests            0                       # Number of requests hitting in the snoop filter with multiple (>1) holders of the requested data. (Count)
system.membus.snoop_filter.totSnoops                0                       # Total number of snoops made to the snoop filter. (Count)
system.membus.snoop_filter.hitSingleSnoops            0                       # Number of snoops hitting in the snoop filter with a single holder of the requested data. (Count)
system.membus.snoop_filter.hitMultiSnoops            0                       # Number of snoops hitting in the snoop filter with multiple (>1) holders of the requested data. (Count)
system.tol2bus.transDist::ReadResp            3504767                       # Transaction distribution (Count)
system.tol2bus.transDist::WritebackDirty      5001653                       # Transaction distribution (Count)
system.tol2bus.transDist::WritebackClean         1520                       # Transaction distribution (Count)
system.tol2bus.transDist::CleanEvict          6722836                       # Transaction distribution (Count)
system.tol2bus.transDist::UpgradeReq                4                       # Transaction distribution (Count)
system.tol2bus.transDist::UpgradeResp               4                       # Transaction distribution (Count)
system.tol2bus.transDist::ReadExReq           2375690                       # Transaction distribution (Count)
system.tol2bus.transDist::ReadExResp          2375690                       # Transaction distribution (Count)
system.tol2bus.transDist::ReadCleanReq           2037                       # Transaction distribution (Count)
system.tol2bus.transDist::ReadSharedReq       3502731                       # Transaction distribution (Count)
system.tol2bus.pktCount_system.cpu.icache.mem_side_port::system.l2.cpu_side_port         5590                       # Packet count per connected requestor and responder (Count)
system.tol2bus.pktCount_system.cpu.dcache.mem_side_port::system.l2.cpu_side_port     17634247                       # Packet count per connected requestor and responder (Count)
system.tol2bus.pktCount::total               17639837                       # Packet count per connected requestor and responder (Count)
system.tol2bus.pktSize_system.cpu.icache.mem_side_port::system.l2.cpu_side_port       227392                       # Cumulative packet size per connected requestor and responder (Byte)
system.tol2bus.pktSize_system.cpu.dcache.mem_side_port::system.l2.cpu_side_port    536277504                       # Cumulative packet size per connected requestor and responder (Byte)
system.tol2bus.pktSize::total               536504896                       # Cumulative packet size per connected requestor and responder (Byte)
system.tol2bus.snoops                         5847095                       # Total snoops (Count)
system.tol2bus.snoopTraffic                 160047424                       # Total snoop traffic (Byte)
system.tol2bus.snoopFanout::samples          11727554                       # Request fanout histogram (Count)
system.tol2bus.snoopFanout::mean             0.000062                       # Request fanout histogram (Count)
system.tol2bus.snoopFanout::stdev            0.007873                       # Request fanout histogram (Count)
system.tol2bus.snoopFanout::underflows              0      0.00%      0.00% # Request fanout histogram (Count)
system.tol2bus.snoopFanout::0                11726830     99.99%     99.99% # Request fanout histogram (Count)
system.tol2bus.snoopFanout::1                     723      0.01%    100.00% # Request fanout histogram (Count)
system.tol2bus.snoopFanout::2                       1      0.00%    100.00% # Request fanout histogram (Count)
system.tol2bus.snoopFanout::3                       0      0.00%    100.00% # Request fanout histogram (Count)
system.tol2bus.snoopFanout::4                       0      0.00%    100.00% # Request fanout histogram (Count)
system.tol2bus.snoopFanout::overflows               0      0.00%    100.00% # Request fanout histogram (Count)
system.tol2bus.snoopFanout::min_value               0                       # Request fanout histogram (Count)
system.tol2bus.snoopFanout::max_value               2                       # Request fanout histogram (Count)
system.tol2bus.snoopFanout::total            11727554                       # Request fanout histogram (Count)
system.tol2bus.power_state.pwrStateResidencyTicks::UNDEFINED 246197097250                       # Cumulative time (in ticks) in various power states (Tick)
system.tol2bus.reqLayer0.occupancy         4191062250                       # Layer occupancy (ticks) (Tick)
system.tol2bus.reqLayer0.utilization              0.0                       # Layer utilization (Ratio)
system.tol2bus.respLayer0.occupancy           1527249                       # Layer occupancy (ticks) (Tick)
system.tol2bus.respLayer0.utilization             0.0                       # Layer utilization (Ratio)
system.tol2bus.respLayer1.occupancy        4408816999                       # Layer occupancy (ticks) (Tick)
system.tol2bus.respLayer1.utilization             0.0                       # Layer utilization (Ratio)
system.tol2bus.snoop_filter.totRequests      11759379                       # Total number of requests made to the snoop filter. (Count)
system.tol2bus.snoop_filter.hitSingleRequests      5878925                       # Number of requests hitting in the snoop filter with a single holder of the requested data. (Count)
system.tol2bus.snoop_filter.hitMultiRequests           49                       # Number of requests hitting in the snoop filter with multiple (>1) holders of the requested data. (Count)
system.tol2bus.snoop_filter.totSnoops             667                       # Total number of snoops made to the snoop filter. (Count)
system.tol2bus.snoop_filter.hitSingleSnoops          666                       # Number of snoops hitting in the snoop filter with a single holder of the requested data. (Count)
system.tol2bus.snoop_filter.hitMultiSnoops            1                       # Number of snoops hitting in the snoop filter with multiple (>1) holders of the requested data. (Count)
system.voltage_domain.voltage                       1                       # Voltage in Volts (Volt)
system.workload.inst.arm                            0                       # number of arm instructions executed (Count)
system.workload.inst.quiesce                        0                       # number of quiesce instructions executed (Count)

---------- End Simulation Statistics   ----------
