
---------- Begin Simulation Statistics ----------
simSeconds                                   0.067936                       # Number of seconds simulated (Second)
simTicks                                  67936051000                       # Number of ticks simulated (Tick)
finalTick                                 67936051000                       # Number of ticks from beginning of simulation (restored from checkpoints and never reset) (Tick)
simFreq                                  1000000000000                       # The number of ticks per simulated second ((Tick/Second))
hostSeconds                                   4849.70                       # Real time elapsed on the host (Second)
hostTickRate                                 14008291                       # The number of ticks simulated per host second (ticks/s) ((Tick/Second))
hostMemory                                    2874164                       # Number of bytes of host memory used (Byte)
simInsts                                    252053666                       # Number of instructions simulated (Count)
simOps                                      455050911                       # Number of ops (including micro ops) simulated (Count)
hostInstRate                                    51973                       # Simulator instruction rate (inst/s) ((Count/Second))
hostOpRate                                      93831                       # Simulator op (including micro ops) rate (op/s) ((Count/Second))
system.clk_domain.clock                          1000                       # Clock period in ticks (Tick)
system.cpu0.numCycles                       271744205                       # Number of cpu cycles simulated (Cycle)
system.cpu0.numWorkItemsStarted                     0                       # Number of work items this cpu started (Count)
system.cpu0.numWorkItemsCompleted                   0                       # Number of work items this cpu completed (Count)
system.cpu0.instsAdded                       92804506                       # Number of instructions added to the IQ (excludes non-spec) (Count)
system.cpu0.nonSpecInstsAdded                    1509                       # Number of non-speculative instructions added to the IQ (Count)
system.cpu0.instsIssued                      93047637                       # Number of instructions issued (Count)
system.cpu0.squashedInstsIssued                  2076                       # Number of squashed instructions issued (Count)
system.cpu0.squashedInstsExamined              637912                       # Number of squashed instructions iterated over during squash; mainly for profiling (Count)
system.cpu0.squashedOperandsExamined           683640                       # Number of squashed operands that are examined and possibly removed from graph (Count)
system.cpu0.squashedNonSpecRemoved                399                       # Number of squashed non-spec instructions that were removed (Count)
system.cpu0.numIssuedDist::samples          271424316                       # Number of insts issued each cycle (Count)
system.cpu0.numIssuedDist::mean              0.342812                       # Number of insts issued each cycle (Count)
system.cpu0.numIssuedDist::stdev             1.191303                       # Number of insts issued each cycle (Count)
system.cpu0.numIssuedDist::underflows               0      0.00%      0.00% # Number of insts issued each cycle (Count)
system.cpu0.numIssuedDist::0                243168907     89.59%     89.59% # Number of insts issued each cycle (Count)
system.cpu0.numIssuedDist::1                  6562221      2.42%     92.01% # Number of insts issued each cycle (Count)
system.cpu0.numIssuedDist::2                  6220176      2.29%     94.30% # Number of insts issued each cycle (Count)
system.cpu0.numIssuedDist::3                  2182367      0.80%     95.10% # Number of insts issued each cycle (Count)
system.cpu0.numIssuedDist::4                  7091367      2.61%     97.72% # Number of insts issued each cycle (Count)
system.cpu0.numIssuedDist::5                  1316443      0.49%     98.20% # Number of insts issued each cycle (Count)
system.cpu0.numIssuedDist::6                  2415713      0.89%     99.09% # Number of insts issued each cycle (Count)
system.cpu0.numIssuedDist::7                  1680974      0.62%     99.71% # Number of insts issued each cycle (Count)
system.cpu0.numIssuedDist::8                   786148      0.29%    100.00% # Number of insts issued each cycle (Count)
system.cpu0.numIssuedDist::overflows                0      0.00%    100.00% # Number of insts issued each cycle (Count)
system.cpu0.numIssuedDist::min_value                0                       # Number of insts issued each cycle (Count)
system.cpu0.numIssuedDist::max_value                8                       # Number of insts issued each cycle (Count)
system.cpu0.numIssuedDist::total            271424316                       # Number of insts issued each cycle (Count)
system.cpu0.statFuBusy::No_OpClass                  0      0.00%      0.00% # attempts to use FU when none available (Count)
system.cpu0.statFuBusy::IntAlu                  18554      1.36%      1.36% # attempts to use FU when none available (Count)
system.cpu0.statFuBusy::IntMult                     0      0.00%      1.36% # attempts to use FU when none available (Count)
system.cpu0.statFuBusy::IntDiv                      0      0.00%      1.36% # attempts to use FU when none available (Count)
system.cpu0.statFuBusy::FloatAdd                    0      0.00%      1.36% # attempts to use FU when none available (Count)
system.cpu0.statFuBusy::FloatCmp                    0      0.00%      1.36% # attempts to use FU when none available (Count)
system.cpu0.statFuBusy::FloatCvt                    4      0.00%      1.36% # attempts to use FU when none available (Count)
system.cpu0.statFuBusy::FloatMult                   0      0.00%      1.36% # attempts to use FU when none available (Count)
system.cpu0.statFuBusy::FloatMultAcc                0      0.00%      1.36% # attempts to use FU when none available (Count)
system.cpu0.statFuBusy::FloatDiv                    0      0.00%      1.36% # attempts to use FU when none available (Count)
system.cpu0.statFuBusy::FloatMisc                   0      0.00%      1.36% # attempts to use FU when none available (Count)
system.cpu0.statFuBusy::FloatSqrt                   0      0.00%      1.36% # attempts to use FU when none available (Count)
system.cpu0.statFuBusy::SimdAdd                     2      0.00%      1.36% # attempts to use FU when none available (Count)
system.cpu0.statFuBusy::SimdAddAcc                  0      0.00%      1.36% # attempts to use FU when none available (Count)
system.cpu0.statFuBusy::SimdAlu                   116      0.01%      1.37% # attempts to use FU when none available (Count)
system.cpu0.statFuBusy::SimdCmp                     0      0.00%      1.37% # attempts to use FU when none available (Count)
system.cpu0.statFuBusy::SimdCvt                   137      0.01%      1.38% # attempts to use FU when none available (Count)
system.cpu0.statFuBusy::SimdMisc                   50      0.00%      1.38% # attempts to use FU when none available (Count)
system.cpu0.statFuBusy::SimdMult                    0      0.00%      1.38% # attempts to use FU when none available (Count)
system.cpu0.statFuBusy::SimdMultAcc                 0      0.00%      1.38% # attempts to use FU when none available (Count)
system.cpu0.statFuBusy::SimdShift                  18      0.00%      1.38% # attempts to use FU when none available (Count)
system.cpu0.statFuBusy::SimdShiftAcc                0      0.00%      1.38% # attempts to use FU when none available (Count)
system.cpu0.statFuBusy::SimdDiv                     0      0.00%      1.38% # attempts to use FU when none available (Count)
system.cpu0.statFuBusy::SimdSqrt                    0      0.00%      1.38% # attempts to use FU when none available (Count)
system.cpu0.statFuBusy::SimdFloatAdd          1290683     94.35%     95.73% # attempts to use FU when none available (Count)
system.cpu0.statFuBusy::SimdFloatAlu                0      0.00%     95.73% # attempts to use FU when none available (Count)
system.cpu0.statFuBusy::SimdFloatCmp                0      0.00%     95.73% # attempts to use FU when none available (Count)
system.cpu0.statFuBusy::SimdFloatCvt                0      0.00%     95.73% # attempts to use FU when none available (Count)
system.cpu0.statFuBusy::SimdFloatDiv                0      0.00%     95.73% # attempts to use FU when none available (Count)
system.cpu0.statFuBusy::SimdFloatMisc               0      0.00%     95.73% # attempts to use FU when none available (Count)
system.cpu0.statFuBusy::SimdFloatMult               0      0.00%     95.73% # attempts to use FU when none available (Count)
system.cpu0.statFuBusy::SimdFloatMultAcc            0      0.00%     95.73% # attempts to use FU when none available (Count)
system.cpu0.statFuBusy::SimdFloatSqrt               0      0.00%     95.73% # attempts to use FU when none available (Count)
system.cpu0.statFuBusy::SimdReduceAdd               0      0.00%     95.73% # attempts to use FU when none available (Count)
system.cpu0.statFuBusy::SimdReduceAlu               0      0.00%     95.73% # attempts to use FU when none available (Count)
system.cpu0.statFuBusy::SimdReduceCmp               0      0.00%     95.73% # attempts to use FU when none available (Count)
system.cpu0.statFuBusy::SimdFloatReduceAdd            0      0.00%     95.73% # attempts to use FU when none available (Count)
system.cpu0.statFuBusy::SimdFloatReduceCmp            0      0.00%     95.73% # attempts to use FU when none available (Count)
system.cpu0.statFuBusy::SimdAes                     0      0.00%     95.73% # attempts to use FU when none available (Count)
system.cpu0.statFuBusy::SimdAesMix                  0      0.00%     95.73% # attempts to use FU when none available (Count)
system.cpu0.statFuBusy::SimdSha1Hash                0      0.00%     95.73% # attempts to use FU when none available (Count)
system.cpu0.statFuBusy::SimdSha1Hash2               0      0.00%     95.73% # attempts to use FU when none available (Count)
system.cpu0.statFuBusy::SimdSha256Hash              0      0.00%     95.73% # attempts to use FU when none available (Count)
system.cpu0.statFuBusy::SimdSha256Hash2             0      0.00%     95.73% # attempts to use FU when none available (Count)
system.cpu0.statFuBusy::SimdShaSigma2               0      0.00%     95.73% # attempts to use FU when none available (Count)
system.cpu0.statFuBusy::SimdShaSigma3               0      0.00%     95.73% # attempts to use FU when none available (Count)
system.cpu0.statFuBusy::SimdPredAlu                 0      0.00%     95.73% # attempts to use FU when none available (Count)
system.cpu0.statFuBusy::MemRead                  2103      0.15%     95.89% # attempts to use FU when none available (Count)
system.cpu0.statFuBusy::MemWrite                 1287      0.09%     95.98% # attempts to use FU when none available (Count)
system.cpu0.statFuBusy::FloatMemRead             9402      0.69%     96.67% # attempts to use FU when none available (Count)
system.cpu0.statFuBusy::FloatMemWrite           45594      3.33%    100.00% # attempts to use FU when none available (Count)
system.cpu0.statFuBusy::IprAccess                   0      0.00%    100.00% # attempts to use FU when none available (Count)
system.cpu0.statFuBusy::InstPrefetch                0      0.00%    100.00% # attempts to use FU when none available (Count)
system.cpu0.statIssuedInstType_0::No_OpClass        26086      0.03%      0.03% # Number of instructions issued per FU type, per thread (Count)
system.cpu0.statIssuedInstType_0::IntAlu     51392135     55.23%     55.26% # Number of instructions issued per FU type, per thread (Count)
system.cpu0.statIssuedInstType_0::IntMult          309      0.00%     55.26% # Number of instructions issued per FU type, per thread (Count)
system.cpu0.statIssuedInstType_0::IntDiv         2999      0.00%     55.26% # Number of instructions issued per FU type, per thread (Count)
system.cpu0.statIssuedInstType_0::FloatAdd      6883374      7.40%     62.66% # Number of instructions issued per FU type, per thread (Count)
system.cpu0.statIssuedInstType_0::FloatCmp            0      0.00%     62.66% # Number of instructions issued per FU type, per thread (Count)
system.cpu0.statIssuedInstType_0::FloatCvt          472      0.00%     62.66% # Number of instructions issued per FU type, per thread (Count)
system.cpu0.statIssuedInstType_0::FloatMult            0      0.00%     62.66% # Number of instructions issued per FU type, per thread (Count)
system.cpu0.statIssuedInstType_0::FloatMultAcc            0      0.00%     62.66% # Number of instructions issued per FU type, per thread (Count)
system.cpu0.statIssuedInstType_0::FloatDiv            0      0.00%     62.66% # Number of instructions issued per FU type, per thread (Count)
system.cpu0.statIssuedInstType_0::FloatMisc            0      0.00%     62.66% # Number of instructions issued per FU type, per thread (Count)
system.cpu0.statIssuedInstType_0::FloatSqrt            0      0.00%     62.66% # Number of instructions issued per FU type, per thread (Count)
system.cpu0.statIssuedInstType_0::SimdAdd         1610      0.00%     62.66% # Number of instructions issued per FU type, per thread (Count)
system.cpu0.statIssuedInstType_0::SimdAddAcc            0      0.00%     62.66% # Number of instructions issued per FU type, per thread (Count)
system.cpu0.statIssuedInstType_0::SimdAlu        30662      0.03%     62.70% # Number of instructions issued per FU type, per thread (Count)
system.cpu0.statIssuedInstType_0::SimdCmp           70      0.00%     62.70% # Number of instructions issued per FU type, per thread (Count)
system.cpu0.statIssuedInstType_0::SimdCvt         4696      0.01%     62.70% # Number of instructions issued per FU type, per thread (Count)
system.cpu0.statIssuedInstType_0::SimdMisc         3991      0.00%     62.71% # Number of instructions issued per FU type, per thread (Count)
system.cpu0.statIssuedInstType_0::SimdMult            0      0.00%     62.71% # Number of instructions issued per FU type, per thread (Count)
system.cpu0.statIssuedInstType_0::SimdMultAcc            0      0.00%     62.71% # Number of instructions issued per FU type, per thread (Count)
system.cpu0.statIssuedInstType_0::SimdShift         1320      0.00%     62.71% # Number of instructions issued per FU type, per thread (Count)
system.cpu0.statIssuedInstType_0::SimdShiftAcc            0      0.00%     62.71% # Number of instructions issued per FU type, per thread (Count)
system.cpu0.statIssuedInstType_0::SimdDiv            0      0.00%     62.71% # Number of instructions issued per FU type, per thread (Count)
system.cpu0.statIssuedInstType_0::SimdSqrt            0      0.00%     62.71% # Number of instructions issued per FU type, per thread (Count)
system.cpu0.statIssuedInstType_0::SimdFloatAdd     12883767     13.85%     76.55% # Number of instructions issued per FU type, per thread (Count)
system.cpu0.statIssuedInstType_0::SimdFloatAlu            0      0.00%     76.55% # Number of instructions issued per FU type, per thread (Count)
system.cpu0.statIssuedInstType_0::SimdFloatCmp           23      0.00%     76.55% # Number of instructions issued per FU type, per thread (Count)
system.cpu0.statIssuedInstType_0::SimdFloatCvt      6017486      6.47%     83.02% # Number of instructions issued per FU type, per thread (Count)
system.cpu0.statIssuedInstType_0::SimdFloatDiv           11      0.00%     83.02% # Number of instructions issued per FU type, per thread (Count)
system.cpu0.statIssuedInstType_0::SimdFloatMisc            0      0.00%     83.02% # Number of instructions issued per FU type, per thread (Count)
system.cpu0.statIssuedInstType_0::SimdFloatMult       756564      0.81%     83.83% # Number of instructions issued per FU type, per thread (Count)
system.cpu0.statIssuedInstType_0::SimdFloatMultAcc            0      0.00%     83.83% # Number of instructions issued per FU type, per thread (Count)
system.cpu0.statIssuedInstType_0::SimdFloatSqrt            0      0.00%     83.83% # Number of instructions issued per FU type, per thread (Count)
system.cpu0.statIssuedInstType_0::SimdReduceAdd            0      0.00%     83.83% # Number of instructions issued per FU type, per thread (Count)
system.cpu0.statIssuedInstType_0::SimdReduceAlu            0      0.00%     83.83% # Number of instructions issued per FU type, per thread (Count)
system.cpu0.statIssuedInstType_0::SimdReduceCmp            0      0.00%     83.83% # Number of instructions issued per FU type, per thread (Count)
system.cpu0.statIssuedInstType_0::SimdFloatReduceAdd            0      0.00%     83.83% # Number of instructions issued per FU type, per thread (Count)
system.cpu0.statIssuedInstType_0::SimdFloatReduceCmp            0      0.00%     83.83% # Number of instructions issued per FU type, per thread (Count)
system.cpu0.statIssuedInstType_0::SimdAes            0      0.00%     83.83% # Number of instructions issued per FU type, per thread (Count)
system.cpu0.statIssuedInstType_0::SimdAesMix            0      0.00%     83.83% # Number of instructions issued per FU type, per thread (Count)
system.cpu0.statIssuedInstType_0::SimdSha1Hash            0      0.00%     83.83% # Number of instructions issued per FU type, per thread (Count)
system.cpu0.statIssuedInstType_0::SimdSha1Hash2            0      0.00%     83.83% # Number of instructions issued per FU type, per thread (Count)
system.cpu0.statIssuedInstType_0::SimdSha256Hash            0      0.00%     83.83% # Number of instructions issued per FU type, per thread (Count)
system.cpu0.statIssuedInstType_0::SimdSha256Hash2            0      0.00%     83.83% # Number of instructions issued per FU type, per thread (Count)
system.cpu0.statIssuedInstType_0::SimdShaSigma2            0      0.00%     83.83% # Number of instructions issued per FU type, per thread (Count)
system.cpu0.statIssuedInstType_0::SimdShaSigma3            0      0.00%     83.83% # Number of instructions issued per FU type, per thread (Count)
system.cpu0.statIssuedInstType_0::SimdPredAlu            0      0.00%     83.83% # Number of instructions issued per FU type, per thread (Count)
system.cpu0.statIssuedInstType_0::MemRead       188023      0.20%     84.04% # Number of instructions issued per FU type, per thread (Count)
system.cpu0.statIssuedInstType_0::MemWrite       196556      0.21%     84.25% # Number of instructions issued per FU type, per thread (Count)
system.cpu0.statIssuedInstType_0::FloatMemRead     12775425     13.73%     97.98% # Number of instructions issued per FU type, per thread (Count)
system.cpu0.statIssuedInstType_0::FloatMemWrite      1882058      2.02%    100.00% # Number of instructions issued per FU type, per thread (Count)
system.cpu0.statIssuedInstType_0::IprAccess            0      0.00%    100.00% # Number of instructions issued per FU type, per thread (Count)
system.cpu0.statIssuedInstType_0::InstPrefetch            0      0.00%    100.00% # Number of instructions issued per FU type, per thread (Count)
system.cpu0.statIssuedInstType_0::total      93047637                       # Number of instructions issued per FU type, per thread (Count)
system.cpu0.issueRate                        0.342409                       # Inst issue rate ((Count/Cycle))
system.cpu0.fuBusy                            1367950                       # FU busy when requested (Count)
system.cpu0.fuBusyRate                       0.014702                       # FU busy rate (busy events/executed inst) ((Count/Count))
system.cpu0.intInstQueueReads               372036551                       # Number of integer instruction queue reads (Count)
system.cpu0.intInstQueueWrites               50937655                       # Number of integer instruction queue writes (Count)
system.cpu0.intInstQueueWakeupAccesses       50251826                       # Number of integer instruction queue wakeup accesses (Count)
system.cpu0.fpInstQueueReads                 86853065                       # Number of floating instruction queue reads (Count)
system.cpu0.fpInstQueueWrites                42506509                       # Number of floating instruction queue writes (Count)
system.cpu0.fpInstQueueWakeupAccesses        42382106                       # Number of floating instruction queue wakeup accesses (Count)
system.cpu0.vecInstQueueReads                       0                       # Number of vector instruction queue reads (Count)
system.cpu0.vecInstQueueWrites                      0                       # Number of vector instruction queue writes (Count)
system.cpu0.vecInstQueueWakeupAccesses              0                       # Number of vector instruction queue wakeup accesses (Count)
system.cpu0.intAluAccesses                   50290086                       # Number of integer alu accesses (Count)
system.cpu0.fpAluAccesses                    44099415                       # Number of floating point alu accesses (Count)
system.cpu0.vecAluAccesses                          0                       # Number of vector alu accesses (Count)
system.cpu0.numInsts                         93015670                       # Number of executed instructions (Count)
system.cpu0.numLoadInsts                     12956910                       # Number of load instructions executed (Count)
system.cpu0.numSquashedInsts                    31967                       # Number of squashed instructions skipped in execute (Count)
system.cpu0.numSwp                                  0                       # Number of swp insts executed (Count)
system.cpu0.numNop                                  0                       # Number of nop insts executed (Count)
system.cpu0.numRefs                          15034478                       # Number of memory reference insts executed (Count)
system.cpu0.numBranches                       9944412                       # Number of branches executed (Count)
system.cpu0.numStoreInsts                     2077568                       # Number of stores executed (Count)
system.cpu0.numRate                          0.342291                       # Inst execution rate ((Count/Cycle))
system.cpu0.timesIdled                           1784                       # Number of times that the entire CPU went into an idle state and unscheduled itself (Count)
system.cpu0.idleCycles                         319889                       # Total number of cycles that the CPU has spent unscheduled due to idling (Cycle)
system.cpu0.committedInsts                   49131203                       # Number of Instructions Simulated (Count)
system.cpu0.committedOps                     92168097                       # Number of Ops (including micro ops) Simulated (Count)
system.cpu0.cpi                              5.530990                       # CPI: Cycles Per Instruction ((Cycle/Count))
system.cpu0.totalCpi                         5.530990                       # CPI: Total CPI of All Threads ((Cycle/Count))
system.cpu0.ipc                              0.180799                       # IPC: Instructions Per Cycle ((Count/Cycle))
system.cpu0.totalIpc                         0.180799                       # IPC: Total IPC of All Threads ((Count/Cycle))
system.cpu0.intRegfileReads                  67591402                       # Number of integer regfile reads (Count)
system.cpu0.intRegfileWrites                 36193669                       # Number of integer regfile writes (Count)
system.cpu0.fpRegfileReads                   57941142                       # Number of floating regfile reads (Count)
system.cpu0.fpRegfileWrites                  34493396                       # Number of floating regfile writes (Count)
system.cpu0.ccRegfileReads                   61610392                       # number of cc regfile reads (Count)
system.cpu0.ccRegfileWrites                  27531703                       # number of cc regfile writes (Count)
system.cpu0.miscRegfileReads                 38942124                       # number of misc regfile reads (Count)
system.cpu0.miscRegfileWrites                     234                       # number of misc regfile writes (Count)
system.cpu0.MemDepUnit__0.insertedLoads      12612292                       # Number of loads inserted to the mem dependence unit. (Count)
system.cpu0.MemDepUnit__0.insertedStores      2083584                       # Number of stores inserted to the mem dependence unit. (Count)
system.cpu0.MemDepUnit__0.conflictingLoads       130845                       # Number of conflicting loads. (Count)
system.cpu0.MemDepUnit__0.conflictingStores       129331                       # Number of conflicting stores. (Count)
system.cpu0.MemDepUnit__1.insertedLoads             0                       # Number of loads inserted to the mem dependence unit. (Count)
system.cpu0.MemDepUnit__1.insertedStores            0                       # Number of stores inserted to the mem dependence unit. (Count)
system.cpu0.MemDepUnit__1.conflictingLoads            0                       # Number of conflicting loads. (Count)
system.cpu0.MemDepUnit__1.conflictingStores            0                       # Number of conflicting stores. (Count)
system.cpu0.MemDepUnit__2.insertedLoads             0                       # Number of loads inserted to the mem dependence unit. (Count)
system.cpu0.MemDepUnit__2.insertedStores            0                       # Number of stores inserted to the mem dependence unit. (Count)
system.cpu0.MemDepUnit__2.conflictingLoads            0                       # Number of conflicting loads. (Count)
system.cpu0.MemDepUnit__2.conflictingStores            0                       # Number of conflicting stores. (Count)
system.cpu0.MemDepUnit__3.insertedLoads             0                       # Number of loads inserted to the mem dependence unit. (Count)
system.cpu0.MemDepUnit__3.insertedStores            0                       # Number of stores inserted to the mem dependence unit. (Count)
system.cpu0.MemDepUnit__3.conflictingLoads            0                       # Number of conflicting loads. (Count)
system.cpu0.MemDepUnit__3.conflictingStores            0                       # Number of conflicting stores. (Count)
system.cpu0.branchPred.lookups                9996524                       # Number of BP lookups (Count)
system.cpu0.branchPred.condPredicted          9933235                       # Number of conditional branches predicted (Count)
system.cpu0.branchPred.condIncorrect             8916                       # Number of conditional branches incorrect (Count)
system.cpu0.branchPred.BTBLookups             3853771                       # Number of BTB lookups (Count)
system.cpu0.branchPred.BTBHits                3849989                       # Number of BTB hits (Count)
system.cpu0.branchPred.BTBHitRatio           0.999019                       # BTB Hit Ratio (Ratio)
system.cpu0.branchPred.RASUsed                  18961                       # Number of times the RAS was used to get a target. (Count)
system.cpu0.branchPred.RASIncorrect                17                       # Number of incorrect RAS predictions. (Count)
system.cpu0.branchPred.indirectLookups          10236                       # Number of indirect predictor lookups. (Count)
system.cpu0.branchPred.indirectHits              5668                       # Number of indirect target hits. (Count)
system.cpu0.branchPred.indirectMisses            4568                       # Number of indirect misses. (Count)
system.cpu0.branchPred.indirectMispredicted          854                       # Number of mispredicted indirect branches. (Count)
system.cpu0.commit.commitSquashedInsts         503804                       # The number of squashed insts skipped by commit (Count)
system.cpu0.commit.commitNonSpecStalls           1110                       # The number of times commit has been forced to stall to communicate backwards (Count)
system.cpu0.commit.branchMispredicts             8444                       # The number of times a branch was mispredicted (Count)
system.cpu0.commit.numCommittedDist::samples    271351951                       # Number of insts commited each cycle (Count)
system.cpu0.commit.numCommittedDist::mean     0.339663                       # Number of insts commited each cycle (Count)
system.cpu0.commit.numCommittedDist::stdev     1.536440                       # Number of insts commited each cycle (Count)
system.cpu0.commit.numCommittedDist::underflows            0      0.00%      0.00% # Number of insts commited each cycle (Count)
system.cpu0.commit.numCommittedDist::0      255706129     94.23%     94.23% # Number of insts commited each cycle (Count)
system.cpu0.commit.numCommittedDist::1        2447965      0.90%     95.14% # Number of insts commited each cycle (Count)
system.cpu0.commit.numCommittedDist::2         401801      0.15%     95.28% # Number of insts commited each cycle (Count)
system.cpu0.commit.numCommittedDist::3        2293761      0.85%     96.13% # Number of insts commited each cycle (Count)
system.cpu0.commit.numCommittedDist::4         370953      0.14%     96.27% # Number of insts commited each cycle (Count)
system.cpu0.commit.numCommittedDist::5          33337      0.01%     96.28% # Number of insts commited each cycle (Count)
system.cpu0.commit.numCommittedDist::6          60974      0.02%     96.30% # Number of insts commited each cycle (Count)
system.cpu0.commit.numCommittedDist::7         277342      0.10%     96.40% # Number of insts commited each cycle (Count)
system.cpu0.commit.numCommittedDist::8        9759689      3.60%    100.00% # Number of insts commited each cycle (Count)
system.cpu0.commit.numCommittedDist::overflows            0      0.00%    100.00% # Number of insts commited each cycle (Count)
system.cpu0.commit.numCommittedDist::min_value            0                       # Number of insts commited each cycle (Count)
system.cpu0.commit.numCommittedDist::max_value            8                       # Number of insts commited each cycle (Count)
system.cpu0.commit.numCommittedDist::total    271351951                       # Number of insts commited each cycle (Count)
system.cpu0.commit.instsCommitted            49131203                       # Number of instructions committed (Count)
system.cpu0.commit.opsCommitted              92168097                       # Number of ops (including micro ops) committed (Count)
system.cpu0.commit.memRefs                   14576041                       # Number of memory references committed (Count)
system.cpu0.commit.loads                     12517923                       # Number of loads committed (Count)
system.cpu0.commit.amos                             0                       # Number of atomic instructions committed (Count)
system.cpu0.commit.membars                        584                       # Number of memory barriers committed (Count)
system.cpu0.commit.branches                   9898388                       # Number of branches committed (Count)
system.cpu0.commit.vectorInstructions               0                       # Number of committed Vector instructions. (Count)
system.cpu0.commit.floating                  42315111                       # Number of committed floating point instructions. (Count)
system.cpu0.commit.integer                   64091726                       # Number of committed integer instructions. (Count)
system.cpu0.commit.functionCalls                 7971                       # Number of function calls committed. (Count)
system.cpu0.commit.committedInstType_0::No_OpClass        12036      0.01%      0.01% # Class of committed instruction (Count)
system.cpu0.commit.committedInstType_0::IntAlu     51040453     55.38%     55.39% # Class of committed instruction (Count)
system.cpu0.commit.committedInstType_0::IntMult          272      0.00%     55.39% # Class of committed instruction (Count)
system.cpu0.commit.committedInstType_0::IntDiv         2705      0.00%     55.39% # Class of committed instruction (Count)
system.cpu0.commit.committedInstType_0::FloatAdd      6878218      7.46%     62.86% # Class of committed instruction (Count)
system.cpu0.commit.committedInstType_0::FloatCmp            0      0.00%     62.86% # Class of committed instruction (Count)
system.cpu0.commit.committedInstType_0::FloatCvt          416      0.00%     62.86% # Class of committed instruction (Count)
system.cpu0.commit.committedInstType_0::FloatMult            0      0.00%     62.86% # Class of committed instruction (Count)
system.cpu0.commit.committedInstType_0::FloatMultAcc            0      0.00%     62.86% # Class of committed instruction (Count)
system.cpu0.commit.committedInstType_0::FloatDiv            0      0.00%     62.86% # Class of committed instruction (Count)
system.cpu0.commit.committedInstType_0::FloatMisc            0      0.00%     62.86% # Class of committed instruction (Count)
system.cpu0.commit.committedInstType_0::FloatSqrt            0      0.00%     62.86% # Class of committed instruction (Count)
system.cpu0.commit.committedInstType_0::SimdAdd         1098      0.00%     62.86% # Class of committed instruction (Count)
system.cpu0.commit.committedInstType_0::SimdAddAcc            0      0.00%     62.86% # Class of committed instruction (Count)
system.cpu0.commit.committedInstType_0::SimdAlu        11590      0.01%     62.87% # Class of committed instruction (Count)
system.cpu0.commit.committedInstType_0::SimdCmp           66      0.00%     62.87% # Class of committed instruction (Count)
system.cpu0.commit.committedInstType_0::SimdCvt         3104      0.00%     62.87% # Class of committed instruction (Count)
system.cpu0.commit.committedInstType_0::SimdMisc         3324      0.00%     62.88% # Class of committed instruction (Count)
system.cpu0.commit.committedInstType_0::SimdMult            0      0.00%     62.88% # Class of committed instruction (Count)
system.cpu0.commit.committedInstType_0::SimdMultAcc            0      0.00%     62.88% # Class of committed instruction (Count)
system.cpu0.commit.committedInstType_0::SimdShift          507      0.00%     62.88% # Class of committed instruction (Count)
system.cpu0.commit.committedInstType_0::SimdShiftAcc            0      0.00%     62.88% # Class of committed instruction (Count)
system.cpu0.commit.committedInstType_0::SimdDiv            0      0.00%     62.88% # Class of committed instruction (Count)
system.cpu0.commit.committedInstType_0::SimdSqrt            0      0.00%     62.88% # Class of committed instruction (Count)
system.cpu0.commit.committedInstType_0::SimdFloatAdd     12879392     13.97%     76.85% # Class of committed instruction (Count)
system.cpu0.commit.committedInstType_0::SimdFloatAlu            0      0.00%     76.85% # Class of committed instruction (Count)
system.cpu0.commit.committedInstType_0::SimdFloatCmp           16      0.00%     76.85% # Class of committed instruction (Count)
system.cpu0.commit.committedInstType_0::SimdFloatCvt      6006621      6.52%     83.37% # Class of committed instruction (Count)
system.cpu0.commit.committedInstType_0::SimdFloatDiv           11      0.00%     83.37% # Class of committed instruction (Count)
system.cpu0.commit.committedInstType_0::SimdFloatMisc            0      0.00%     83.37% # Class of committed instruction (Count)
system.cpu0.commit.committedInstType_0::SimdFloatMult       752227      0.82%     84.19% # Class of committed instruction (Count)
system.cpu0.commit.committedInstType_0::SimdFloatMultAcc            0      0.00%     84.19% # Class of committed instruction (Count)
system.cpu0.commit.committedInstType_0::SimdFloatSqrt            0      0.00%     84.19% # Class of committed instruction (Count)
system.cpu0.commit.committedInstType_0::SimdReduceAdd            0      0.00%     84.19% # Class of committed instruction (Count)
system.cpu0.commit.committedInstType_0::SimdReduceAlu            0      0.00%     84.19% # Class of committed instruction (Count)
system.cpu0.commit.committedInstType_0::SimdReduceCmp            0      0.00%     84.19% # Class of committed instruction (Count)
system.cpu0.commit.committedInstType_0::SimdFloatReduceAdd            0      0.00%     84.19% # Class of committed instruction (Count)
system.cpu0.commit.committedInstType_0::SimdFloatReduceCmp            0      0.00%     84.19% # Class of committed instruction (Count)
system.cpu0.commit.committedInstType_0::SimdAes            0      0.00%     84.19% # Class of committed instruction (Count)
system.cpu0.commit.committedInstType_0::SimdAesMix            0      0.00%     84.19% # Class of committed instruction (Count)
system.cpu0.commit.committedInstType_0::SimdSha1Hash            0      0.00%     84.19% # Class of committed instruction (Count)
system.cpu0.commit.committedInstType_0::SimdSha1Hash2            0      0.00%     84.19% # Class of committed instruction (Count)
system.cpu0.commit.committedInstType_0::SimdSha256Hash            0      0.00%     84.19% # Class of committed instruction (Count)
system.cpu0.commit.committedInstType_0::SimdSha256Hash2            0      0.00%     84.19% # Class of committed instruction (Count)
system.cpu0.commit.committedInstType_0::SimdShaSigma2            0      0.00%     84.19% # Class of committed instruction (Count)
system.cpu0.commit.committedInstType_0::SimdShaSigma3            0      0.00%     84.19% # Class of committed instruction (Count)
system.cpu0.commit.committedInstType_0::SimdPredAlu            0      0.00%     84.19% # Class of committed instruction (Count)
system.cpu0.commit.committedInstType_0::MemRead       125905      0.14%     84.32% # Class of committed instruction (Count)
system.cpu0.commit.committedInstType_0::MemWrite       176773      0.19%     84.51% # Class of committed instruction (Count)
system.cpu0.commit.committedInstType_0::FloatMemRead     12392018     13.45%     97.96% # Class of committed instruction (Count)
system.cpu0.commit.committedInstType_0::FloatMemWrite      1881345      2.04%    100.00% # Class of committed instruction (Count)
system.cpu0.commit.committedInstType_0::IprAccess            0      0.00%    100.00% # Class of committed instruction (Count)
system.cpu0.commit.committedInstType_0::InstPrefetch            0      0.00%    100.00% # Class of committed instruction (Count)
system.cpu0.commit.committedInstType_0::total     92168097                       # Class of committed instruction (Count)
system.cpu0.commit.commitEligibleSamples      9759689                       # number cycles where commit BW limit reached (Cycle)
system.cpu0.dcache.demandHits::cpu00.data      8080370                       # number of demand (read+write) hits (Count)
system.cpu0.dcache.demandHits::total          8080370                       # number of demand (read+write) hits (Count)
system.cpu0.dcache.overallHits::cpu00.data      8080370                       # number of overall hits (Count)
system.cpu0.dcache.overallHits::total         8080370                       # number of overall hits (Count)
system.cpu0.dcache.demandMisses::cpu00.data      6550415                       # number of demand (read+write) misses (Count)
system.cpu0.dcache.demandMisses::total        6550415                       # number of demand (read+write) misses (Count)
system.cpu0.dcache.overallMisses::cpu00.data      6550415                       # number of overall misses (Count)
system.cpu0.dcache.overallMisses::total       6550415                       # number of overall misses (Count)
system.cpu0.dcache.demandMissLatency::cpu00.data 490815708555                       # number of demand (read+write) miss ticks (Tick)
system.cpu0.dcache.demandMissLatency::total 490815708555                       # number of demand (read+write) miss ticks (Tick)
system.cpu0.dcache.overallMissLatency::cpu00.data 490815708555                       # number of overall miss ticks (Tick)
system.cpu0.dcache.overallMissLatency::total 490815708555                       # number of overall miss ticks (Tick)
system.cpu0.dcache.demandAccesses::cpu00.data     14630785                       # number of demand (read+write) accesses (Count)
system.cpu0.dcache.demandAccesses::total     14630785                       # number of demand (read+write) accesses (Count)
system.cpu0.dcache.overallAccesses::cpu00.data     14630785                       # number of overall (read+write) accesses (Count)
system.cpu0.dcache.overallAccesses::total     14630785                       # number of overall (read+write) accesses (Count)
system.cpu0.dcache.demandMissRate::cpu00.data     0.447715                       # miss rate for demand accesses (Ratio)
system.cpu0.dcache.demandMissRate::total     0.447715                       # miss rate for demand accesses (Ratio)
system.cpu0.dcache.overallMissRate::cpu00.data     0.447715                       # miss rate for overall accesses (Ratio)
system.cpu0.dcache.overallMissRate::total     0.447715                       # miss rate for overall accesses (Ratio)
system.cpu0.dcache.demandAvgMissLatency::cpu00.data 74928.948556                       # average overall miss latency in ticks ((Tick/Count))
system.cpu0.dcache.demandAvgMissLatency::total 74928.948556                       # average overall miss latency in ticks ((Tick/Count))
system.cpu0.dcache.overallAvgMissLatency::cpu00.data 74928.948556                       # average overall miss latency ((Tick/Count))
system.cpu0.dcache.overallAvgMissLatency::total 74928.948556                       # average overall miss latency ((Tick/Count))
system.cpu0.dcache.blockedCycles::no_mshrs     45297981                       # number of cycles access was blocked (Cycle)
system.cpu0.dcache.blockedCycles::no_targets          316                       # number of cycles access was blocked (Cycle)
system.cpu0.dcache.blockedCauses::no_mshrs       154473                       # number of times access was blocked (Count)
system.cpu0.dcache.blockedCauses::no_targets            5                       # number of times access was blocked (Count)
system.cpu0.dcache.avgBlocked::no_mshrs    293.242062                       # average number of cycles each access was blocked ((Cycle/Count))
system.cpu0.dcache.avgBlocked::no_targets    63.200000                       # average number of cycles each access was blocked ((Cycle/Count))
system.cpu0.dcache.writebacks::writebacks       253055                       # number of writebacks (Count)
system.cpu0.dcache.writebacks::total           253055                       # number of writebacks (Count)
system.cpu0.dcache.demandMshrHits::cpu00.data      5262269                       # number of demand (read+write) MSHR hits (Count)
system.cpu0.dcache.demandMshrHits::total      5262269                       # number of demand (read+write) MSHR hits (Count)
system.cpu0.dcache.overallMshrHits::cpu00.data      5262269                       # number of overall MSHR hits (Count)
system.cpu0.dcache.overallMshrHits::total      5262269                       # number of overall MSHR hits (Count)
system.cpu0.dcache.demandMshrMisses::cpu00.data      1288146                       # number of demand (read+write) MSHR misses (Count)
system.cpu0.dcache.demandMshrMisses::total      1288146                       # number of demand (read+write) MSHR misses (Count)
system.cpu0.dcache.overallMshrMisses::cpu00.data      1288146                       # number of overall MSHR misses (Count)
system.cpu0.dcache.overallMshrMisses::total      1288146                       # number of overall MSHR misses (Count)
system.cpu0.dcache.demandMshrMissLatency::cpu00.data 168920886055                       # number of demand (read+write) MSHR miss ticks (Tick)
system.cpu0.dcache.demandMshrMissLatency::total 168920886055                       # number of demand (read+write) MSHR miss ticks (Tick)
system.cpu0.dcache.overallMshrMissLatency::cpu00.data 168920886055                       # number of overall MSHR miss ticks (Tick)
system.cpu0.dcache.overallMshrMissLatency::total 168920886055                       # number of overall MSHR miss ticks (Tick)
system.cpu0.dcache.demandMshrMissRate::cpu00.data     0.088044                       # mshr miss ratio for demand accesses (Ratio)
system.cpu0.dcache.demandMshrMissRate::total     0.088044                       # mshr miss ratio for demand accesses (Ratio)
system.cpu0.dcache.overallMshrMissRate::cpu00.data     0.088044                       # mshr miss ratio for overall accesses (Ratio)
system.cpu0.dcache.overallMshrMissRate::total     0.088044                       # mshr miss ratio for overall accesses (Ratio)
system.cpu0.dcache.demandAvgMshrMissLatency::cpu00.data 131134.891584                       # average overall mshr miss latency ((Tick/Count))
system.cpu0.dcache.demandAvgMshrMissLatency::total 131134.891584                       # average overall mshr miss latency ((Tick/Count))
system.cpu0.dcache.overallAvgMshrMissLatency::cpu00.data 131134.891584                       # average overall mshr miss latency ((Tick/Count))
system.cpu0.dcache.overallAvgMshrMissLatency::total 131134.891584                       # average overall mshr miss latency ((Tick/Count))
system.cpu0.dcache.replacements               1286777                       # number of replacements (Count)
system.cpu0.dcache.LockedRMWReadReq.hits::cpu00.data          258                       # number of LockedRMWReadReq hits (Count)
system.cpu0.dcache.LockedRMWReadReq.hits::total          258                       # number of LockedRMWReadReq hits (Count)
system.cpu0.dcache.LockedRMWReadReq.misses::cpu00.data           34                       # number of LockedRMWReadReq misses (Count)
system.cpu0.dcache.LockedRMWReadReq.misses::total           34                       # number of LockedRMWReadReq misses (Count)
system.cpu0.dcache.LockedRMWReadReq.missLatency::cpu00.data      1255250                       # number of LockedRMWReadReq miss ticks (Tick)
system.cpu0.dcache.LockedRMWReadReq.missLatency::total      1255250                       # number of LockedRMWReadReq miss ticks (Tick)
system.cpu0.dcache.LockedRMWReadReq.accesses::cpu00.data          292                       # number of LockedRMWReadReq accesses(hits+misses) (Count)
system.cpu0.dcache.LockedRMWReadReq.accesses::total          292                       # number of LockedRMWReadReq accesses(hits+misses) (Count)
system.cpu0.dcache.LockedRMWReadReq.missRate::cpu00.data     0.116438                       # miss rate for LockedRMWReadReq accesses (Ratio)
system.cpu0.dcache.LockedRMWReadReq.missRate::total     0.116438                       # miss rate for LockedRMWReadReq accesses (Ratio)
system.cpu0.dcache.LockedRMWReadReq.avgMissLatency::cpu00.data 36919.117647                       # average LockedRMWReadReq miss latency ((Tick/Count))
system.cpu0.dcache.LockedRMWReadReq.avgMissLatency::total 36919.117647                       # average LockedRMWReadReq miss latency ((Tick/Count))
system.cpu0.dcache.LockedRMWReadReq.mshrMisses::cpu00.data           34                       # number of LockedRMWReadReq MSHR misses (Count)
system.cpu0.dcache.LockedRMWReadReq.mshrMisses::total           34                       # number of LockedRMWReadReq MSHR misses (Count)
system.cpu0.dcache.LockedRMWReadReq.mshrMissLatency::cpu00.data      3130001                       # number of LockedRMWReadReq MSHR miss ticks (Tick)
system.cpu0.dcache.LockedRMWReadReq.mshrMissLatency::total      3130001                       # number of LockedRMWReadReq MSHR miss ticks (Tick)
system.cpu0.dcache.LockedRMWReadReq.mshrMissRate::cpu00.data     0.116438                       # mshr miss rate for LockedRMWReadReq accesses (Ratio)
system.cpu0.dcache.LockedRMWReadReq.mshrMissRate::total     0.116438                       # mshr miss rate for LockedRMWReadReq accesses (Ratio)
system.cpu0.dcache.LockedRMWReadReq.avgMshrMissLatency::cpu00.data 92058.852941                       # average LockedRMWReadReq mshr miss latency ((Tick/Count))
system.cpu0.dcache.LockedRMWReadReq.avgMshrMissLatency::total 92058.852941                       # average LockedRMWReadReq mshr miss latency ((Tick/Count))
system.cpu0.dcache.LockedRMWWriteReq.hits::cpu00.data          292                       # number of LockedRMWWriteReq hits (Count)
system.cpu0.dcache.LockedRMWWriteReq.hits::total          292                       # number of LockedRMWWriteReq hits (Count)
system.cpu0.dcache.LockedRMWWriteReq.accesses::cpu00.data          292                       # number of LockedRMWWriteReq accesses(hits+misses) (Count)
system.cpu0.dcache.LockedRMWWriteReq.accesses::total          292                       # number of LockedRMWWriteReq accesses(hits+misses) (Count)
system.cpu0.dcache.ReadReq.hits::cpu00.data      6259546                       # number of ReadReq hits (Count)
system.cpu0.dcache.ReadReq.hits::total        6259546                       # number of ReadReq hits (Count)
system.cpu0.dcache.ReadReq.misses::cpu00.data      6313396                       # number of ReadReq misses (Count)
system.cpu0.dcache.ReadReq.misses::total      6313396                       # number of ReadReq misses (Count)
system.cpu0.dcache.ReadReq.missLatency::cpu00.data 449690917750                       # number of ReadReq miss ticks (Tick)
system.cpu0.dcache.ReadReq.missLatency::total 449690917750                       # number of ReadReq miss ticks (Tick)
system.cpu0.dcache.ReadReq.accesses::cpu00.data     12572942                       # number of ReadReq accesses(hits+misses) (Count)
system.cpu0.dcache.ReadReq.accesses::total     12572942                       # number of ReadReq accesses(hits+misses) (Count)
system.cpu0.dcache.ReadReq.missRate::cpu00.data     0.502142                       # miss rate for ReadReq accesses (Ratio)
system.cpu0.dcache.ReadReq.missRate::total     0.502142                       # miss rate for ReadReq accesses (Ratio)
system.cpu0.dcache.ReadReq.avgMissLatency::cpu00.data 71228.055036                       # average ReadReq miss latency ((Tick/Count))
system.cpu0.dcache.ReadReq.avgMissLatency::total 71228.055036                       # average ReadReq miss latency ((Tick/Count))
system.cpu0.dcache.ReadReq.mshrHits::cpu00.data      5262255                       # number of ReadReq MSHR hits (Count)
system.cpu0.dcache.ReadReq.mshrHits::total      5262255                       # number of ReadReq MSHR hits (Count)
system.cpu0.dcache.ReadReq.mshrMisses::cpu00.data      1051141                       # number of ReadReq MSHR misses (Count)
system.cpu0.dcache.ReadReq.mshrMisses::total      1051141                       # number of ReadReq MSHR misses (Count)
system.cpu0.dcache.ReadReq.mshrMissLatency::cpu00.data 127915429750                       # number of ReadReq MSHR miss ticks (Tick)
system.cpu0.dcache.ReadReq.mshrMissLatency::total 127915429750                       # number of ReadReq MSHR miss ticks (Tick)
system.cpu0.dcache.ReadReq.mshrMissRate::cpu00.data     0.083603                       # mshr miss rate for ReadReq accesses (Ratio)
system.cpu0.dcache.ReadReq.mshrMissRate::total     0.083603                       # mshr miss rate for ReadReq accesses (Ratio)
system.cpu0.dcache.ReadReq.avgMshrMissLatency::cpu00.data 121691.980191                       # average ReadReq mshr miss latency ((Tick/Count))
system.cpu0.dcache.ReadReq.avgMshrMissLatency::total 121691.980191                       # average ReadReq mshr miss latency ((Tick/Count))
system.cpu0.dcache.WriteReq.hits::cpu00.data      1820824                       # number of WriteReq hits (Count)
system.cpu0.dcache.WriteReq.hits::total       1820824                       # number of WriteReq hits (Count)
system.cpu0.dcache.WriteReq.misses::cpu00.data       237019                       # number of WriteReq misses (Count)
system.cpu0.dcache.WriteReq.misses::total       237019                       # number of WriteReq misses (Count)
system.cpu0.dcache.WriteReq.missLatency::cpu00.data  41124790805                       # number of WriteReq miss ticks (Tick)
system.cpu0.dcache.WriteReq.missLatency::total  41124790805                       # number of WriteReq miss ticks (Tick)
system.cpu0.dcache.WriteReq.accesses::cpu00.data      2057843                       # number of WriteReq accesses(hits+misses) (Count)
system.cpu0.dcache.WriteReq.accesses::total      2057843                       # number of WriteReq accesses(hits+misses) (Count)
system.cpu0.dcache.WriteReq.missRate::cpu00.data     0.115178                       # miss rate for WriteReq accesses (Ratio)
system.cpu0.dcache.WriteReq.missRate::total     0.115178                       # miss rate for WriteReq accesses (Ratio)
system.cpu0.dcache.WriteReq.avgMissLatency::cpu00.data 173508.414114                       # average WriteReq miss latency ((Tick/Count))
system.cpu0.dcache.WriteReq.avgMissLatency::total 173508.414114                       # average WriteReq miss latency ((Tick/Count))
system.cpu0.dcache.WriteReq.mshrHits::cpu00.data           14                       # number of WriteReq MSHR hits (Count)
system.cpu0.dcache.WriteReq.mshrHits::total           14                       # number of WriteReq MSHR hits (Count)
system.cpu0.dcache.WriteReq.mshrMisses::cpu00.data       237005                       # number of WriteReq MSHR misses (Count)
system.cpu0.dcache.WriteReq.mshrMisses::total       237005                       # number of WriteReq MSHR misses (Count)
system.cpu0.dcache.WriteReq.mshrMissLatency::cpu00.data  41005456305                       # number of WriteReq MSHR miss ticks (Tick)
system.cpu0.dcache.WriteReq.mshrMissLatency::total  41005456305                       # number of WriteReq MSHR miss ticks (Tick)
system.cpu0.dcache.WriteReq.mshrMissRate::cpu00.data     0.115172                       # mshr miss rate for WriteReq accesses (Ratio)
system.cpu0.dcache.WriteReq.mshrMissRate::total     0.115172                       # mshr miss rate for WriteReq accesses (Ratio)
system.cpu0.dcache.WriteReq.avgMshrMissLatency::cpu00.data 173015.152866                       # average WriteReq mshr miss latency ((Tick/Count))
system.cpu0.dcache.WriteReq.avgMshrMissLatency::total 173015.152866                       # average WriteReq mshr miss latency ((Tick/Count))
system.cpu0.dcache.power_state.pwrStateResidencyTicks::UNDEFINED  67936051000                       # Cumulative time (in ticks) in various power states (Tick)
system.cpu0.dcache.tags.tagsInUse         1023.183027                       # Average ticks per tags in use ((Tick/Count))
system.cpu0.dcache.tags.totalRefs             9369104                       # Total number of references to valid blocks. (Count)
system.cpu0.dcache.tags.sampledRefs           1288075                       # Sample count of references to valid blocks. (Count)
system.cpu0.dcache.tags.avgRefs              7.273726                       # Average number of references to valid blocks. ((Count/Count))
system.cpu0.dcache.tags.warmupTick             148250                       # The tick when the warmup percentage was hit. (Tick)
system.cpu0.dcache.tags.occupancies::cpu00.data  1023.183027                       # Average occupied blocks per tick, per requestor ((Count/Tick))
system.cpu0.dcache.tags.avgOccs::cpu00.data     0.999202                       # Average percentage of cache occupancy ((Ratio/Tick))
system.cpu0.dcache.tags.avgOccs::total       0.999202                       # Average percentage of cache occupancy ((Ratio/Tick))
system.cpu0.dcache.tags.occupanciesTaskId::1024         1024                       # Occupied blocks per task id (Count)
system.cpu0.dcache.tags.ageTaskId_1024::0          136                       # Occupied blocks per task id, per block age (Count)
system.cpu0.dcache.tags.ageTaskId_1024::1          887                       # Occupied blocks per task id, per block age (Count)
system.cpu0.dcache.tags.ageTaskId_1024::4            1                       # Occupied blocks per task id, per block age (Count)
system.cpu0.dcache.tags.ratioOccsTaskId::1024            1                       # Ratio of occupied blocks and all blocks, per task id (Ratio)
system.cpu0.dcache.tags.tagAccesses          30550813                       # Number of tag accesses (Count)
system.cpu0.dcache.tags.dataAccesses         30550813                       # Number of data accesses (Count)
system.cpu0.dcache.tags.power_state.pwrStateResidencyTicks::UNDEFINED  67936051000                       # Cumulative time (in ticks) in various power states (Tick)
system.cpu0.decode.idleCycles                 4330503                       # Number of cycles decode is idle (Cycle)
system.cpu0.decode.blockedCycles            254732421                       # Number of cycles decode is blocked (Cycle)
system.cpu0.decode.runCycles                  9267313                       # Number of cycles decode is running (Cycle)
system.cpu0.decode.unblockCycles              3082833                       # Number of cycles decode is unblocking (Cycle)
system.cpu0.decode.squashCycles                 11246                       # Number of cycles decode is squashing (Cycle)
system.cpu0.decode.branchResolved             3847551                       # Number of times decode resolved a branch (Count)
system.cpu0.decode.branchMispred                 1211                       # Number of times decode detected a branch misprediction (Count)
system.cpu0.decode.decodedInsts              92915621                       # Number of instructions handled by decode (Count)
system.cpu0.decode.squashedInsts                 5442                       # Number of squashed instructions handled by decode (Count)
system.cpu0.dtb_walker_cache.blockedCycles::no_mshrs            0                       # number of cycles access was blocked (Cycle)
system.cpu0.dtb_walker_cache.blockedCycles::no_targets            0                       # number of cycles access was blocked (Cycle)
system.cpu0.dtb_walker_cache.blockedCauses::no_mshrs            0                       # number of times access was blocked (Count)
system.cpu0.dtb_walker_cache.blockedCauses::no_targets            0                       # number of times access was blocked (Count)
system.cpu0.dtb_walker_cache.avgBlocked::no_mshrs          nan                       # average number of cycles each access was blocked ((Cycle/Count))
system.cpu0.dtb_walker_cache.avgBlocked::no_targets          nan                       # average number of cycles each access was blocked ((Cycle/Count))
system.cpu0.dtb_walker_cache.replacements            0                       # number of replacements (Count)
system.cpu0.dtb_walker_cache.power_state.pwrStateResidencyTicks::UNDEFINED  67936051000                       # Cumulative time (in ticks) in various power states (Tick)
system.cpu0.dtb_walker_cache.tags.tagsInUse            0                       # Average ticks per tags in use ((Tick/Count))
system.cpu0.dtb_walker_cache.tags.totalRefs            0                       # Total number of references to valid blocks. (Count)
system.cpu0.dtb_walker_cache.tags.sampledRefs            0                       # Sample count of references to valid blocks. (Count)
system.cpu0.dtb_walker_cache.tags.avgRefs          nan                       # Average number of references to valid blocks. ((Count/Count))
system.cpu0.dtb_walker_cache.tags.warmupTick            0                       # The tick when the warmup percentage was hit. (Tick)
system.cpu0.dtb_walker_cache.tags.tagAccesses            0                       # Number of tag accesses (Count)
system.cpu0.dtb_walker_cache.tags.dataAccesses            0                       # Number of data accesses (Count)
system.cpu0.dtb_walker_cache.tags.power_state.pwrStateResidencyTicks::UNDEFINED  67936051000                       # Cumulative time (in ticks) in various power states (Tick)
system.cpu0.fetch.icacheStallCycles           5492851                       # Number of cycles fetch is stalled on an Icache miss (Cycle)
system.cpu0.fetch.insts                      49572450                       # Number of instructions fetch has processed (Count)
system.cpu0.fetch.branches                    9996524                       # Number of branches that fetch encountered (Count)
system.cpu0.fetch.predictedBranches           3874618                       # Number of branches that fetch has predicted taken (Count)
system.cpu0.fetch.cycles                    265912229                       # Number of cycles fetch has run and was not squashing or blocked (Cycle)
system.cpu0.fetch.squashCycles                  24874                       # Number of cycles fetch has spent squashing (Cycle)
system.cpu0.fetch.tlbCycles                       316                       # Number of cycles fetch has spent waiting for tlb (Cycle)
system.cpu0.fetch.miscStallCycles                 783                       # Number of cycles fetch has spent waiting on interrupts, or bad addresses, or out of MSHRs (Cycle)
system.cpu0.fetch.pendingTrapStallCycles         5505                       # Number of stall cycles due to pending traps (Cycle)
system.cpu0.fetch.icacheWaitRetryStallCycles          195                       # Number of stall cycles due to full MSHR (Cycle)
system.cpu0.fetch.cacheLines                  5377201                       # Number of cache lines fetched (Count)
system.cpu0.fetch.icacheSquashes                 3472                       # Number of outstanding Icache misses that were squashed (Count)
system.cpu0.fetch.nisnDist::samples         271424316                       # Number of instructions fetched each cycle (Total) (Count)
system.cpu0.fetch.nisnDist::mean             0.342723                       # Number of instructions fetched each cycle (Total) (Count)
system.cpu0.fetch.nisnDist::stdev            1.523369                       # Number of instructions fetched each cycle (Total) (Count)
system.cpu0.fetch.nisnDist::underflows              0      0.00%      0.00% # Number of instructions fetched each cycle (Total) (Count)
system.cpu0.fetch.nisnDist::0               256372684     94.45%     94.45% # Number of instructions fetched each cycle (Total) (Count)
system.cpu0.fetch.nisnDist::1                  757565      0.28%     94.73% # Number of instructions fetched each cycle (Total) (Count)
system.cpu0.fetch.nisnDist::2                  578601      0.21%     94.95% # Number of instructions fetched each cycle (Total) (Count)
system.cpu0.fetch.nisnDist::3                 1078677      0.40%     95.34% # Number of instructions fetched each cycle (Total) (Count)
system.cpu0.fetch.nisnDist::4                 3158251      1.16%     96.51% # Number of instructions fetched each cycle (Total) (Count)
system.cpu0.fetch.nisnDist::5                   80327      0.03%     96.54% # Number of instructions fetched each cycle (Total) (Count)
system.cpu0.fetch.nisnDist::6                   87005      0.03%     96.57% # Number of instructions fetched each cycle (Total) (Count)
system.cpu0.fetch.nisnDist::7                  173788      0.06%     96.63% # Number of instructions fetched each cycle (Total) (Count)
system.cpu0.fetch.nisnDist::8                 9137418      3.37%    100.00% # Number of instructions fetched each cycle (Total) (Count)
system.cpu0.fetch.nisnDist::overflows               0      0.00%    100.00% # Number of instructions fetched each cycle (Total) (Count)
system.cpu0.fetch.nisnDist::min_value               0                       # Number of instructions fetched each cycle (Total) (Count)
system.cpu0.fetch.nisnDist::max_value               8                       # Number of instructions fetched each cycle (Total) (Count)
system.cpu0.fetch.nisnDist::total           271424316                       # Number of instructions fetched each cycle (Total) (Count)
system.cpu0.fetch.branchRate                 0.036787                       # Number of branch fetches per cycle (Ratio)
system.cpu0.fetch.rate                       0.182423                       # Number of inst fetches per cycle ((Count/Cycle))
system.cpu0.icache.demandHits::cpu00.inst      5373545                       # number of demand (read+write) hits (Count)
system.cpu0.icache.demandHits::total          5373545                       # number of demand (read+write) hits (Count)
system.cpu0.icache.overallHits::cpu00.inst      5373545                       # number of overall hits (Count)
system.cpu0.icache.overallHits::total         5373545                       # number of overall hits (Count)
system.cpu0.icache.demandMisses::cpu00.inst         3656                       # number of demand (read+write) misses (Count)
system.cpu0.icache.demandMisses::total           3656                       # number of demand (read+write) misses (Count)
system.cpu0.icache.overallMisses::cpu00.inst         3656                       # number of overall misses (Count)
system.cpu0.icache.overallMisses::total          3656                       # number of overall misses (Count)
system.cpu0.icache.demandMissLatency::cpu00.inst    194166248                       # number of demand (read+write) miss ticks (Tick)
system.cpu0.icache.demandMissLatency::total    194166248                       # number of demand (read+write) miss ticks (Tick)
system.cpu0.icache.overallMissLatency::cpu00.inst    194166248                       # number of overall miss ticks (Tick)
system.cpu0.icache.overallMissLatency::total    194166248                       # number of overall miss ticks (Tick)
system.cpu0.icache.demandAccesses::cpu00.inst      5377201                       # number of demand (read+write) accesses (Count)
system.cpu0.icache.demandAccesses::total      5377201                       # number of demand (read+write) accesses (Count)
system.cpu0.icache.overallAccesses::cpu00.inst      5377201                       # number of overall (read+write) accesses (Count)
system.cpu0.icache.overallAccesses::total      5377201                       # number of overall (read+write) accesses (Count)
system.cpu0.icache.demandMissRate::cpu00.inst     0.000680                       # miss rate for demand accesses (Ratio)
system.cpu0.icache.demandMissRate::total     0.000680                       # miss rate for demand accesses (Ratio)
system.cpu0.icache.overallMissRate::cpu00.inst     0.000680                       # miss rate for overall accesses (Ratio)
system.cpu0.icache.overallMissRate::total     0.000680                       # miss rate for overall accesses (Ratio)
system.cpu0.icache.demandAvgMissLatency::cpu00.inst 53108.929978                       # average overall miss latency in ticks ((Tick/Count))
system.cpu0.icache.demandAvgMissLatency::total 53108.929978                       # average overall miss latency in ticks ((Tick/Count))
system.cpu0.icache.overallAvgMissLatency::cpu00.inst 53108.929978                       # average overall miss latency ((Tick/Count))
system.cpu0.icache.overallAvgMissLatency::total 53108.929978                       # average overall miss latency ((Tick/Count))
system.cpu0.icache.blockedCycles::no_mshrs         1438                       # number of cycles access was blocked (Cycle)
system.cpu0.icache.blockedCycles::no_targets            0                       # number of cycles access was blocked (Cycle)
system.cpu0.icache.blockedCauses::no_mshrs           15                       # number of times access was blocked (Count)
system.cpu0.icache.blockedCauses::no_targets            0                       # number of times access was blocked (Count)
system.cpu0.icache.avgBlocked::no_mshrs     95.866667                       # average number of cycles each access was blocked ((Cycle/Count))
system.cpu0.icache.avgBlocked::no_targets          nan                       # average number of cycles each access was blocked ((Cycle/Count))
system.cpu0.icache.writebacks::writebacks         2382                       # number of writebacks (Count)
system.cpu0.icache.writebacks::total             2382                       # number of writebacks (Count)
system.cpu0.icache.demandMshrHits::cpu00.inst          750                       # number of demand (read+write) MSHR hits (Count)
system.cpu0.icache.demandMshrHits::total          750                       # number of demand (read+write) MSHR hits (Count)
system.cpu0.icache.overallMshrHits::cpu00.inst          750                       # number of overall MSHR hits (Count)
system.cpu0.icache.overallMshrHits::total          750                       # number of overall MSHR hits (Count)
system.cpu0.icache.demandMshrMisses::cpu00.inst         2906                       # number of demand (read+write) MSHR misses (Count)
system.cpu0.icache.demandMshrMisses::total         2906                       # number of demand (read+write) MSHR misses (Count)
system.cpu0.icache.overallMshrMisses::cpu00.inst         2906                       # number of overall MSHR misses (Count)
system.cpu0.icache.overallMshrMisses::total         2906                       # number of overall MSHR misses (Count)
system.cpu0.icache.demandMshrMissLatency::cpu00.inst    154753748                       # number of demand (read+write) MSHR miss ticks (Tick)
system.cpu0.icache.demandMshrMissLatency::total    154753748                       # number of demand (read+write) MSHR miss ticks (Tick)
system.cpu0.icache.overallMshrMissLatency::cpu00.inst    154753748                       # number of overall MSHR miss ticks (Tick)
system.cpu0.icache.overallMshrMissLatency::total    154753748                       # number of overall MSHR miss ticks (Tick)
system.cpu0.icache.demandMshrMissRate::cpu00.inst     0.000540                       # mshr miss ratio for demand accesses (Ratio)
system.cpu0.icache.demandMshrMissRate::total     0.000540                       # mshr miss ratio for demand accesses (Ratio)
system.cpu0.icache.overallMshrMissRate::cpu00.inst     0.000540                       # mshr miss ratio for overall accesses (Ratio)
system.cpu0.icache.overallMshrMissRate::total     0.000540                       # mshr miss ratio for overall accesses (Ratio)
system.cpu0.icache.demandAvgMshrMissLatency::cpu00.inst 53253.182381                       # average overall mshr miss latency ((Tick/Count))
system.cpu0.icache.demandAvgMshrMissLatency::total 53253.182381                       # average overall mshr miss latency ((Tick/Count))
system.cpu0.icache.overallAvgMshrMissLatency::cpu00.inst 53253.182381                       # average overall mshr miss latency ((Tick/Count))
system.cpu0.icache.overallAvgMshrMissLatency::total 53253.182381                       # average overall mshr miss latency ((Tick/Count))
system.cpu0.icache.replacements                  2382                       # number of replacements (Count)
system.cpu0.icache.ReadReq.hits::cpu00.inst      5373545                       # number of ReadReq hits (Count)
system.cpu0.icache.ReadReq.hits::total        5373545                       # number of ReadReq hits (Count)
system.cpu0.icache.ReadReq.misses::cpu00.inst         3656                       # number of ReadReq misses (Count)
system.cpu0.icache.ReadReq.misses::total         3656                       # number of ReadReq misses (Count)
system.cpu0.icache.ReadReq.missLatency::cpu00.inst    194166248                       # number of ReadReq miss ticks (Tick)
system.cpu0.icache.ReadReq.missLatency::total    194166248                       # number of ReadReq miss ticks (Tick)
system.cpu0.icache.ReadReq.accesses::cpu00.inst      5377201                       # number of ReadReq accesses(hits+misses) (Count)
system.cpu0.icache.ReadReq.accesses::total      5377201                       # number of ReadReq accesses(hits+misses) (Count)
system.cpu0.icache.ReadReq.missRate::cpu00.inst     0.000680                       # miss rate for ReadReq accesses (Ratio)
system.cpu0.icache.ReadReq.missRate::total     0.000680                       # miss rate for ReadReq accesses (Ratio)
system.cpu0.icache.ReadReq.avgMissLatency::cpu00.inst 53108.929978                       # average ReadReq miss latency ((Tick/Count))
system.cpu0.icache.ReadReq.avgMissLatency::total 53108.929978                       # average ReadReq miss latency ((Tick/Count))
system.cpu0.icache.ReadReq.mshrHits::cpu00.inst          750                       # number of ReadReq MSHR hits (Count)
system.cpu0.icache.ReadReq.mshrHits::total          750                       # number of ReadReq MSHR hits (Count)
system.cpu0.icache.ReadReq.mshrMisses::cpu00.inst         2906                       # number of ReadReq MSHR misses (Count)
system.cpu0.icache.ReadReq.mshrMisses::total         2906                       # number of ReadReq MSHR misses (Count)
system.cpu0.icache.ReadReq.mshrMissLatency::cpu00.inst    154753748                       # number of ReadReq MSHR miss ticks (Tick)
system.cpu0.icache.ReadReq.mshrMissLatency::total    154753748                       # number of ReadReq MSHR miss ticks (Tick)
system.cpu0.icache.ReadReq.mshrMissRate::cpu00.inst     0.000540                       # mshr miss rate for ReadReq accesses (Ratio)
system.cpu0.icache.ReadReq.mshrMissRate::total     0.000540                       # mshr miss rate for ReadReq accesses (Ratio)
system.cpu0.icache.ReadReq.avgMshrMissLatency::cpu00.inst 53253.182381                       # average ReadReq mshr miss latency ((Tick/Count))
system.cpu0.icache.ReadReq.avgMshrMissLatency::total 53253.182381                       # average ReadReq mshr miss latency ((Tick/Count))
system.cpu0.icache.power_state.pwrStateResidencyTicks::UNDEFINED  67936051000                       # Cumulative time (in ticks) in various power states (Tick)
system.cpu0.icache.tags.tagsInUse          510.285043                       # Average ticks per tags in use ((Tick/Count))
system.cpu0.icache.tags.totalRefs             5376450                       # Total number of references to valid blocks. (Count)
system.cpu0.icache.tags.sampledRefs              2905                       # Sample count of references to valid blocks. (Count)
system.cpu0.icache.tags.avgRefs           1850.757315                       # Average number of references to valid blocks. ((Count/Count))
system.cpu0.icache.tags.warmupTick              74250                       # The tick when the warmup percentage was hit. (Tick)
system.cpu0.icache.tags.occupancies::cpu00.inst   510.285043                       # Average occupied blocks per tick, per requestor ((Count/Tick))
system.cpu0.icache.tags.avgOccs::cpu00.inst     0.996650                       # Average percentage of cache occupancy ((Ratio/Tick))
system.cpu0.icache.tags.avgOccs::total       0.996650                       # Average percentage of cache occupancy ((Ratio/Tick))
system.cpu0.icache.tags.occupanciesTaskId::1024          510                       # Occupied blocks per task id (Count)
system.cpu0.icache.tags.ageTaskId_1024::0          144                       # Occupied blocks per task id, per block age (Count)
system.cpu0.icache.tags.ageTaskId_1024::1           61                       # Occupied blocks per task id, per block age (Count)
system.cpu0.icache.tags.ageTaskId_1024::4          305                       # Occupied blocks per task id, per block age (Count)
system.cpu0.icache.tags.ratioOccsTaskId::1024     0.996094                       # Ratio of occupied blocks and all blocks, per task id (Ratio)
system.cpu0.icache.tags.tagAccesses          10757307                       # Number of tag accesses (Count)
system.cpu0.icache.tags.dataAccesses         10757307                       # Number of data accesses (Count)
system.cpu0.icache.tags.power_state.pwrStateResidencyTicks::UNDEFINED  67936051000                       # Cumulative time (in ticks) in various power states (Tick)
system.cpu0.iew.idleCycles                          0                       # Number of cycles IEW is idle (Cycle)
system.cpu0.iew.squashCycles                    11246                       # Number of cycles IEW is squashing (Cycle)
system.cpu0.iew.blockCycles                  47067565                       # Number of cycles IEW is blocking (Cycle)
system.cpu0.iew.unblockCycles                20822486                       # Number of cycles IEW is unblocking (Cycle)
system.cpu0.iew.dispatchedInsts              92806015                       # Number of instructions dispatched to IQ (Count)
system.cpu0.iew.dispSquashedInsts                 910                       # Number of squashed instructions skipped by dispatch (Count)
system.cpu0.iew.dispLoadInsts                12612292                       # Number of dispatched load instructions (Count)
system.cpu0.iew.dispStoreInsts                2083584                       # Number of dispatched store instructions (Count)
system.cpu0.iew.dispNonSpecInsts                  664                       # Number of dispatched non-speculative instructions (Count)
system.cpu0.iew.iqFullEvents                     2358                       # Number of times the IQ has become full, causing a stall (Count)
system.cpu0.iew.lsqFullEvents                20478771                       # Number of times the LSQ has become full, causing a stall (Count)
system.cpu0.iew.memOrderViolationEvents           250                       # Number of memory order violations (Count)
system.cpu0.iew.predictedTakenIncorrect          2780                       # Number of branches that were predicted taken incorrectly (Count)
system.cpu0.iew.predictedNotTakenIncorrect         7464                       # Number of branches that were predicted not taken incorrectly (Count)
system.cpu0.iew.branchMispredicts               10244                       # Number of branch mispredicts detected at execute (Count)
system.cpu0.iew.instsToCommit                92645164                       # Cumulative count of insts sent to commit (Count)
system.cpu0.iew.writebackCount               92633932                       # Cumulative count of insts written-back (Count)
system.cpu0.iew.producerInst                 68723633                       # Number of instructions producing a value (Count)
system.cpu0.iew.consumerInst                115461700                       # Number of instructions consuming a value (Count)
system.cpu0.iew.wbRate                       0.340887                       # Insts written-back per cycle ((Count/Cycle))
system.cpu0.iew.wbFanout                     0.595207                       # Average fanout of values written-back ((Count/Count))
system.cpu0.interrupts.clk_domain.clock          4000                       # Clock period in ticks (Tick)
system.cpu0.itb_walker_cache.blockedCycles::no_mshrs            0                       # number of cycles access was blocked (Cycle)
system.cpu0.itb_walker_cache.blockedCycles::no_targets            0                       # number of cycles access was blocked (Cycle)
system.cpu0.itb_walker_cache.blockedCauses::no_mshrs            0                       # number of times access was blocked (Count)
system.cpu0.itb_walker_cache.blockedCauses::no_targets            0                       # number of times access was blocked (Count)
system.cpu0.itb_walker_cache.avgBlocked::no_mshrs          nan                       # average number of cycles each access was blocked ((Cycle/Count))
system.cpu0.itb_walker_cache.avgBlocked::no_targets          nan                       # average number of cycles each access was blocked ((Cycle/Count))
system.cpu0.itb_walker_cache.replacements            0                       # number of replacements (Count)
system.cpu0.itb_walker_cache.power_state.pwrStateResidencyTicks::UNDEFINED  67936051000                       # Cumulative time (in ticks) in various power states (Tick)
[...]
system.tol2bus.pktSize_system.cpu08.dcache.mem_side_port::system.l2.cpu_side_port     49997120                       # Cumulative packet size per connected requestor and responder (Byte)
system.tol2bus.pktSize_system.cpu09.icache.mem_side_port::system.l2.cpu_side_port         4032                       # Cumulative packet size per connected requestor and responder (Byte)
system.tol2bus.pktSize_system.cpu09.dcache.mem_side_port::system.l2.cpu_side_port     49994048                       # Cumulative packet size per connected requestor and responder (Byte)
system.tol2bus.pktSize_system.cpu10.icache.mem_side_port::system.l2.cpu_side_port         4160                       # Cumulative packet size per connected requestor and responder (Byte)
system.tol2bus.pktSize_system.cpu10.dcache.mem_side_port::system.l2.cpu_side_port     49994240                       # Cumulative packet size per connected requestor and responder (Byte)
system.tol2bus.pktSize_system.cpu11.icache.mem_side_port::system.l2.cpu_side_port         4416                       # Cumulative packet size per connected requestor and responder (Byte)
system.tol2bus.pktSize_system.cpu11.dcache.mem_side_port::system.l2.cpu_side_port     49994752                       # Cumulative packet size per connected requestor and responder (Byte)
system.tol2bus.pktSize_system.cpu12.icache.mem_side_port::system.l2.cpu_side_port         4032                       # Cumulative packet size per connected requestor and responder (Byte)
system.tol2bus.pktSize_system.cpu12.dcache.mem_side_port::system.l2.cpu_side_port     49994240                       # Cumulative packet size per connected requestor and responder (Byte)
system.tol2bus.pktSize_system.cpu13.icache.mem_side_port::system.l2.cpu_side_port         4160                       # Cumulative packet size per connected requestor and responder (Byte)
system.tol2bus.pktSize_system.cpu13.dcache.mem_side_port::system.l2.cpu_side_port     49994048                       # Cumulative packet size per connected requestor and responder (Byte)
system.tol2bus.pktSize_system.cpu14.icache.mem_side_port::system.l2.cpu_side_port         4288                       # Cumulative packet size per connected requestor and responder (Byte)
system.tol2bus.pktSize_system.cpu14.dcache.mem_side_port::system.l2.cpu_side_port     49994752                       # Cumulative packet size per connected requestor and responder (Byte)
system.tol2bus.pktSize_system.cpu15.icache.mem_side_port::system.l2.cpu_side_port         4544                       # Cumulative packet size per connected requestor and responder (Byte)
system.tol2bus.pktSize_system.cpu15.dcache.mem_side_port::system.l2.cpu_side_port     49994752                       # Cumulative packet size per connected requestor and responder (Byte)
system.tol2bus.pktSize::total               848696960                       # Cumulative packet size per connected requestor and responder (Byte)
system.tol2bus.snoops                        10395164                       # Total snoops (Count)
system.tol2bus.snoopTraffic                 256372480                       # Total snoop traffic (Byte)
system.tol2bus.snoopFanout::samples          23675518                       # Request fanout histogram (Count)
system.tol2bus.snoopFanout::mean             0.094261                       # Request fanout histogram (Count)
system.tol2bus.snoopFanout::stdev            0.318958                       # Request fanout histogram (Count)
system.tol2bus.snoopFanout::underflows              0      0.00%      0.00% # Request fanout histogram (Count)
system.tol2bus.snoopFanout::0                21477066     90.71%     90.71% # Request fanout histogram (Count)
system.tol2bus.snoopFanout::1                 2194117      9.27%     99.98% # Request fanout histogram (Count)
system.tol2bus.snoopFanout::2                     676      0.00%     99.98% # Request fanout histogram (Count)
system.tol2bus.snoopFanout::3                     259      0.00%     99.99% # Request fanout histogram (Count)
system.tol2bus.snoopFanout::4                     251      0.00%     99.99% # Request fanout histogram (Count)
system.tol2bus.snoopFanout::5                     248      0.00%     99.99% # Request fanout histogram (Count)
system.tol2bus.snoopFanout::6                     241      0.00%     99.99% # Request fanout histogram (Count)
system.tol2bus.snoopFanout::7                     243      0.00%     99.99% # Request fanout histogram (Count)
system.tol2bus.snoopFanout::8                     225      0.00%     99.99% # Request fanout histogram (Count)
system.tol2bus.snoopFanout::9                     223      0.00%     99.99% # Request fanout histogram (Count)
system.tol2bus.snoopFanout::10                    225      0.00%     99.99% # Request fanout histogram (Count)
system.tol2bus.snoopFanout::11                    225      0.00%     99.99% # Request fanout histogram (Count)
system.tol2bus.snoopFanout::12                    231      0.00%     99.99% # Request fanout histogram (Count)
system.tol2bus.snoopFanout::13                    211      0.00%    100.00% # Request fanout histogram (Count)
system.tol2bus.snoopFanout::14                    220      0.00%    100.00% # Request fanout histogram (Count)
system.tol2bus.snoopFanout::15                    797      0.00%    100.00% # Request fanout histogram (Count)
system.tol2bus.snoopFanout::16                     58      0.00%    100.00% # Request fanout histogram (Count)
system.tol2bus.snoopFanout::17                      1      0.00%    100.00% # Request fanout histogram (Count)
system.tol2bus.snoopFanout::18                      1      0.00%    100.00% # Request fanout histogram (Count)
system.tol2bus.snoopFanout::19                      0      0.00%    100.00% # Request fanout histogram (Count)
system.tol2bus.snoopFanout::20                      0      0.00%    100.00% # Request fanout histogram (Count)
system.tol2bus.snoopFanout::21                      0      0.00%    100.00% # Request fanout histogram (Count)
system.tol2bus.snoopFanout::22                      0      0.00%    100.00% # Request fanout histogram (Count)
system.tol2bus.snoopFanout::23                      0      0.00%    100.00% # Request fanout histogram (Count)
system.tol2bus.snoopFanout::24                      0      0.00%    100.00% # Request fanout histogram (Count)
system.tol2bus.snoopFanout::25                      0      0.00%    100.00% # Request fanout histogram (Count)
system.tol2bus.snoopFanout::26                      0      0.00%    100.00% # Request fanout histogram (Count)
system.tol2bus.snoopFanout::27                      0      0.00%    100.00% # Request fanout histogram (Count)
system.tol2bus.snoopFanout::28                      0      0.00%    100.00% # Request fanout histogram (Count)
system.tol2bus.snoopFanout::29                      0      0.00%    100.00% # Request fanout histogram (Count)
system.tol2bus.snoopFanout::30                      0      0.00%    100.00% # Request fanout histogram (Count)
system.tol2bus.snoopFanout::31                      0      0.00%    100.00% # Request fanout histogram (Count)
system.tol2bus.snoopFanout::32                      0      0.00%    100.00% # Request fanout histogram (Count)
system.tol2bus.snoopFanout::33                      0      0.00%    100.00% # Request fanout histogram (Count)
system.tol2bus.snoopFanout::34                      0      0.00%    100.00% # Request fanout histogram (Count)
system.tol2bus.snoopFanout::35                      0      0.00%    100.00% # Request fanout histogram (Count)
system.tol2bus.snoopFanout::36                      0      0.00%    100.00% # Request fanout histogram (Count)
system.tol2bus.snoopFanout::37                      0      0.00%    100.00% # Request fanout histogram (Count)
system.tol2bus.snoopFanout::38                      0      0.00%    100.00% # Request fanout histogram (Count)
system.tol2bus.snoopFanout::39                      0      0.00%    100.00% # Request fanout histogram (Count)
system.tol2bus.snoopFanout::40                      0      0.00%    100.00% # Request fanout histogram (Count)
system.tol2bus.snoopFanout::41                      0      0.00%    100.00% # Request fanout histogram (Count)
system.tol2bus.snoopFanout::42                      0      0.00%    100.00% # Request fanout histogram (Count)
system.tol2bus.snoopFanout::43                      0      0.00%    100.00% # Request fanout histogram (Count)
system.tol2bus.snoopFanout::44                      0      0.00%    100.00% # Request fanout histogram (Count)
system.tol2bus.snoopFanout::45                      0      0.00%    100.00% # Request fanout histogram (Count)
system.tol2bus.snoopFanout::46                      0      0.00%    100.00% # Request fanout histogram (Count)
system.tol2bus.snoopFanout::47                      0      0.00%    100.00% # Request fanout histogram (Count)
system.tol2bus.snoopFanout::48                      0      0.00%    100.00% # Request fanout histogram (Count)
system.tol2bus.snoopFanout::49                      0      0.00%    100.00% # Request fanout histogram (Count)
system.tol2bus.snoopFanout::50                      0      0.00%    100.00% # Request fanout histogram (Count)
system.tol2bus.snoopFanout::51                      0      0.00%    100.00% # Request fanout histogram (Count)
system.tol2bus.snoopFanout::52                      0      0.00%    100.00% # Request fanout histogram (Count)
system.tol2bus.snoopFanout::53                      0      0.00%    100.00% # Request fanout histogram (Count)
system.tol2bus.snoopFanout::54                      0      0.00%    100.00% # Request fanout histogram (Count)
system.tol2bus.snoopFanout::55                      0      0.00%    100.00% # Request fanout histogram (Count)
system.tol2bus.snoopFanout::56                      0      0.00%    100.00% # Request fanout histogram (Count)
system.tol2bus.snoopFanout::57                      0      0.00%    100.00% # Request fanout histogram (Count)
system.tol2bus.snoopFanout::58                      0      0.00%    100.00% # Request fanout histogram (Count)
system.tol2bus.snoopFanout::59                      0      0.00%    100.00% # Request fanout histogram (Count)
system.tol2bus.snoopFanout::60                      0      0.00%    100.00% # Request fanout histogram (Count)
system.tol2bus.snoopFanout::61                      0      0.00%    100.00% # Request fanout histogram (Count)
system.tol2bus.snoopFanout::62                      0      0.00%    100.00% # Request fanout histogram (Count)
system.tol2bus.snoopFanout::63                      0      0.00%    100.00% # Request fanout histogram (Count)
system.tol2bus.snoopFanout::64                      0      0.00%    100.00% # Request fanout histogram (Count)
system.tol2bus.snoopFanout::overflows               0      0.00%    100.00% # Request fanout histogram (Count)
system.tol2bus.snoopFanout::min_value               0                       # Request fanout histogram (Count)
system.tol2bus.snoopFanout::max_value              18                       # Request fanout histogram (Count)
system.tol2bus.snoopFanout::total            23675518                       # Request fanout histogram (Count)
system.tol2bus.power_state.pwrStateResidencyTicks::UNDEFINED  67936051000                       # Cumulative time (in ticks) in various power states (Tick)
system.tol2bus.reqLayer0.occupancy        10365496560                       # Layer occupancy (ticks) (Tick)
system.tol2bus.reqLayer0.utilization              0.2                       # Layer utilization (Ratio)
system.tol2bus.respLayer0.occupancy           2179497                       # Layer occupancy (ticks) (Tick)
system.tol2bus.respLayer0.utilization             0.0                       # Layer utilization (Ratio)
system.tol2bus.respLayer1.occupancy         966087634                       # Layer occupancy (ticks) (Tick)
system.tol2bus.respLayer1.utilization             0.0                       # Layer utilization (Ratio)
system.tol2bus.respLayer12.occupancy            56166                       # Layer occupancy (ticks) (Tick)
system.tol2bus.respLayer12.utilization            0.0                       # Layer utilization (Ratio)
system.tol2bus.respLayer13.occupancy        398698899                       # Layer occupancy (ticks) (Tick)
system.tol2bus.respLayer13.utilization            0.0                       # Layer utilization (Ratio)
system.tol2bus.respLayer16.occupancy            52192                       # Layer occupancy (ticks) (Tick)
system.tol2bus.respLayer16.utilization            0.0                       # Layer utilization (Ratio)
system.tol2bus.respLayer17.occupancy        398693617                       # Layer occupancy (ticks) (Tick)
system.tol2bus.respLayer17.utilization            0.0                       # Layer utilization (Ratio)
system.tol2bus.respLayer20.occupancy            56950                       # Layer occupancy (ticks) (Tick)
system.tol2bus.respLayer20.utilization            0.0                       # Layer utilization (Ratio)
system.tol2bus.respLayer21.occupancy        398703487                       # Layer occupancy (ticks) (Tick)
system.tol2bus.respLayer21.utilization            0.0                       # Layer utilization (Ratio)
system.tol2bus.respLayer24.occupancy            52458                       # Layer occupancy (ticks) (Tick)
system.tol2bus.respLayer24.utilization            0.0                       # Layer utilization (Ratio)
system.tol2bus.respLayer25.occupancy        398692883                       # Layer occupancy (ticks) (Tick)
system.tol2bus.respLayer25.utilization            0.0                       # Layer utilization (Ratio)
system.tol2bus.respLayer28.occupancy            54183                       # Layer occupancy (ticks) (Tick)
system.tol2bus.respLayer28.utilization            0.0                       # Layer utilization (Ratio)
system.tol2bus.respLayer29.occupancy        398693131                       # Layer occupancy (ticks) (Tick)
system.tol2bus.respLayer29.utilization            0.0                       # Layer utilization (Ratio)
system.tol2bus.respLayer32.occupancy            55949                       # Layer occupancy (ticks) (Tick)
system.tol2bus.respLayer32.utilization            0.0                       # Layer utilization (Ratio)
system.tol2bus.respLayer33.occupancy        398694677                       # Layer occupancy (ticks) (Tick)
system.tol2bus.respLayer33.utilization            0.0                       # Layer utilization (Ratio)
system.tol2bus.respLayer36.occupancy            53678                       # Layer occupancy (ticks) (Tick)
system.tol2bus.respLayer36.utilization            0.0                       # Layer utilization (Ratio)
system.tol2bus.respLayer37.occupancy        398694197                       # Layer occupancy (ticks) (Tick)
system.tol2bus.respLayer37.utilization            0.0                       # Layer utilization (Ratio)
system.tol2bus.respLayer4.occupancy            105431                       # Layer occupancy (ticks) (Tick)
system.tol2bus.respLayer4.utilization             0.0                       # Layer utilization (Ratio)
system.tol2bus.respLayer40.occupancy            54927                       # Layer occupancy (ticks) (Tick)
system.tol2bus.respLayer40.utilization            0.0                       # Layer utilization (Ratio)
system.tol2bus.respLayer41.occupancy        398695644                       # Layer occupancy (ticks) (Tick)
system.tol2bus.respLayer41.utilization            0.0                       # Layer utilization (Ratio)
system.tol2bus.respLayer44.occupancy            58691                       # Layer occupancy (ticks) (Tick)
system.tol2bus.respLayer44.utilization            0.0                       # Layer utilization (Ratio)
system.tol2bus.respLayer45.occupancy        398696202                       # Layer occupancy (ticks) (Tick)
system.tol2bus.respLayer45.utilization            0.0                       # Layer utilization (Ratio)
system.tol2bus.respLayer48.occupancy            52935                       # Layer occupancy (ticks) (Tick)
system.tol2bus.respLayer48.utilization            0.0                       # Layer utilization (Ratio)
system.tol2bus.respLayer49.occupancy        398695399                       # Layer occupancy (ticks) (Tick)
system.tol2bus.respLayer49.utilization            0.0                       # Layer utilization (Ratio)
system.tol2bus.respLayer5.occupancy         398768180                       # Layer occupancy (ticks) (Tick)
system.tol2bus.respLayer5.utilization             0.0                       # Layer utilization (Ratio)
system.tol2bus.respLayer52.occupancy            54671                       # Layer occupancy (ticks) (Tick)
system.tol2bus.respLayer52.utilization            0.0                       # Layer utilization (Ratio)
system.tol2bus.respLayer53.occupancy        398696420                       # Layer occupancy (ticks) (Tick)
system.tol2bus.respLayer53.utilization            0.0                       # Layer utilization (Ratio)
system.tol2bus.respLayer56.occupancy            56677                       # Layer occupancy (ticks) (Tick)
system.tol2bus.respLayer56.utilization            0.0                       # Layer utilization (Ratio)
system.tol2bus.respLayer57.occupancy        398696410                       # Layer occupancy (ticks) (Tick)
system.tol2bus.respLayer57.utilization            0.0                       # Layer utilization (Ratio)
system.tol2bus.respLayer60.occupancy            59175                       # Layer occupancy (ticks) (Tick)
system.tol2bus.respLayer60.utilization            0.0                       # Layer utilization (Ratio)
system.tol2bus.respLayer61.occupancy        398700188                       # Layer occupancy (ticks) (Tick)
system.tol2bus.respLayer61.utilization            0.0                       # Layer utilization (Ratio)
system.tol2bus.respLayer8.occupancy             60683                       # Layer occupancy (ticks) (Tick)
system.tol2bus.respLayer8.utilization             0.0                       # Layer utilization (Ratio)
system.tol2bus.respLayer9.occupancy         398701645                       # Layer occupancy (ticks) (Tick)
system.tol2bus.respLayer9.utilization             0.0                       # Layer utilization (Ratio)
system.tol2bus.snoop_filter.totRequests      26002673                       # Total number of requests made to the snoop filter. (Count)
system.tol2bus.snoop_filter.hitSingleRequests     12714679                       # Number of requests hitting in the snoop filter with a single holder of the requested data. (Count)
system.tol2bus.snoop_filter.hitMultiRequests        22556                       # Number of requests hitting in the snoop filter with multiple (>1) holders of the requested data. (Count)
system.tol2bus.snoop_filter.totSnoops         2176800                       # Total number of snoops made to the snoop filter. (Count)
system.tol2bus.snoop_filter.hitSingleSnoops      2176253                       # Number of snoops hitting in the snoop filter with a single holder of the requested data. (Count)
system.tol2bus.snoop_filter.hitMultiSnoops          547                       # Number of snoops hitting in the snoop filter with multiple (>1) holders of the requested data. (Count)
system.voltage_domain.voltage                       1                       # Voltage in Volts (Volt)
system.workload.inst.arm                            0                       # number of arm instructions executed (Count)
system.workload.inst.quiesce                        0                       # number of quiesce instructions executed (Count)

---------- End Simulation Statistics   ----------
