
---------- Begin Simulation Statistics ----------
simSeconds                                   0.069463                       # Number of seconds simulated (Second)
simTicks                                  69462828000                       # Number of ticks simulated (Tick)
finalTick                                 69462828000                       # Number of ticks from beginning of simulation (restored from checkpoints and never reset) (Tick)
simFreq                                  1000000000000                       # The number of ticks per simulated second ((Tick/Second))
hostSeconds                                   4995.88                       # Real time elapsed on the host (Second)
hostTickRate                                 13904031                       # The number of ticks simulated per host second (ticks/s) ((Tick/Second))
hostMemory                                    2874672                       # Number of bytes of host memory used (Byte)
simInsts                                    260525267                       # Number of instructions simulated (Count)
simOps                                      469574437                       # Number of ops (including micro ops) simulated (Count)
hostInstRate                                    52148                       # Simulator instruction rate (inst/s) ((Count/Second))
hostOpRate                                      93992                       # Simulator op (including micro ops) rate (op/s) ((Count/Second))
system.clk_domain.clock                          1000                       # Clock period in ticks (Tick)
system.cpu0.numCycles                       277851313                       # Number of cpu cycles simulated (Cycle)
system.cpu0.numWorkItemsStarted                     0                       # Number of work items this cpu started (Count)
system.cpu0.numWorkItemsCompleted                   0                       # Number of work items this cpu completed (Count)
system.cpu0.instsAdded                       93521301                       # Number of instructions added to the IQ (excludes non-spec) (Count)
system.cpu0.nonSpecInstsAdded                    1509                       # Number of non-speculative instructions added to the IQ (Count)
system.cpu0.instsIssued                      93735432                       # Number of instructions issued (Count)
system.cpu0.squashedInstsIssued                  2129                       # Number of squashed instructions issued (Count)
system.cpu0.squashedInstsExamined              645355                       # Number of squashed instructions iterated over during squash; mainly for profiling (Count)
system.cpu0.squashedOperandsExamined           687560                       # Number of squashed operands that are examined and possibly removed from graph (Count)
system.cpu0.squashedNonSpecRemoved                399                       # Number of squashed non-spec instructions that were removed (Count)
system.cpu0.numIssuedDist::samples          277525724                       # Number of insts issued each cycle (Count)
system.cpu0.numIssuedDist::mean              0.337754                       # Number of insts issued each cycle (Count)
system.cpu0.numIssuedDist::stdev             1.185170                       # Number of insts issued each cycle (Count)
system.cpu0.numIssuedDist::underflows               0      0.00%      0.00% # Number of insts issued each cycle (Count)
system.cpu0.numIssuedDist::0                249175650     89.78%     89.78% # Number of insts issued each cycle (Count)
system.cpu0.numIssuedDist::1                  6545971      2.36%     92.14% # Number of insts issued each cycle (Count)
system.cpu0.numIssuedDist::2                  6201856      2.23%     94.38% # Number of insts issued each cycle (Count)
system.cpu0.numIssuedDist::3                  2198661      0.79%     95.17% # Number of insts issued each cycle (Count)
system.cpu0.numIssuedDist::4                  7076388      2.55%     97.72% # Number of insts issued each cycle (Count)
system.cpu0.numIssuedDist::5                  1393555      0.50%     98.22% # Number of insts issued each cycle (Count)
system.cpu0.numIssuedDist::6                  2407398      0.87%     99.09% # Number of insts issued each cycle (Count)
system.cpu0.numIssuedDist::7                  1737909      0.63%     99.72% # Number of insts issued each cycle (Count)
system.cpu0.numIssuedDist::8                   788336      0.28%    100.00% # Number of insts issued each cycle (Count)
system.cpu0.numIssuedDist::overflows                0      0.00%    100.00% # Number of insts issued each cycle (Count)
system.cpu0.numIssuedDist::min_value                0                       # Number of insts issued each cycle (Count)
system.cpu0.numIssuedDist::max_value                8                       # Number of insts issued each cycle (Count)
system.cpu0.numIssuedDist::total            277525724                       # Number of insts issued each cycle (Count)
system.cpu0.statFuBusy::No_OpClass                  0      0.00%      0.00% # attempts to use FU when none available (Count)
system.cpu0.statFuBusy::IntAlu                  18807      1.38%      1.38% # attempts to use FU when none available (Count)
system.cpu0.statFuBusy::IntMult                     0      0.00%      1.38% # attempts to use FU when none available (Count)
system.cpu0.statFuBusy::IntDiv                      0      0.00%      1.38% # attempts to use FU when none available (Count)
system.cpu0.statFuBusy::FloatAdd                    0      0.00%      1.38% # attempts to use FU when none available (Count)
system.cpu0.statFuBusy::FloatCmp                    0      0.00%      1.38% # attempts to use FU when none available (Count)
system.cpu0.statFuBusy::FloatCvt                    4      0.00%      1.38% # attempts to use FU when none available (Count)
system.cpu0.statFuBusy::FloatMult                   0      0.00%      1.38% # attempts to use FU when none available (Count)
system.cpu0.statFuBusy::FloatMultAcc                0      0.00%      1.38% # attempts to use FU when none available (Count)
system.cpu0.statFuBusy::FloatDiv                    0      0.00%      1.38% # attempts to use FU when none available (Count)
system.cpu0.statFuBusy::FloatMisc                   0      0.00%      1.38% # attempts to use FU when none available (Count)
system.cpu0.statFuBusy::FloatSqrt                   0      0.00%      1.38% # attempts to use FU when none available (Count)
system.cpu0.statFuBusy::SimdAdd                     2      0.00%      1.38% # attempts to use FU when none available (Count)
system.cpu0.statFuBusy::SimdAddAcc                  0      0.00%      1.38% # attempts to use FU when none available (Count)
system.cpu0.statFuBusy::SimdAlu                   116      0.01%      1.39% # attempts to use FU when none available (Count)
system.cpu0.statFuBusy::SimdCmp                     0      0.00%      1.39% # attempts to use FU when none available (Count)
system.cpu0.statFuBusy::SimdCvt                   138      0.01%      1.40% # attempts to use FU when none available (Count)
system.cpu0.statFuBusy::SimdMisc                   50      0.00%      1.40% # attempts to use FU when none available (Count)
system.cpu0.statFuBusy::SimdMult                    0      0.00%      1.40% # attempts to use FU when none available (Count)
system.cpu0.statFuBusy::SimdMultAcc                 0      0.00%      1.40% # attempts to use FU when none available (Count)
system.cpu0.statFuBusy::SimdShift                  18      0.00%      1.40% # attempts to use FU when none available (Count)
system.cpu0.statFuBusy::SimdShiftAcc                0      0.00%      1.40% # attempts to use FU when none available (Count)
system.cpu0.statFuBusy::SimdDiv                     0      0.00%      1.40% # attempts to use FU when none available (Count)
system.cpu0.statFuBusy::SimdSqrt                    0      0.00%      1.40% # attempts to use FU when none available (Count)
system.cpu0.statFuBusy::SimdFloatAdd          1290269     94.66%     96.06% # attempts to use FU when none available (Count)
system.cpu0.statFuBusy::SimdFloatAlu                0      0.00%     96.06% # attempts to use FU when none available (Count)
system.cpu0.statFuBusy::SimdFloatCmp                0      0.00%     96.06% # attempts to use FU when none available (Count)
system.cpu0.statFuBusy::SimdFloatCvt                0      0.00%     96.06% # attempts to use FU when none available (Count)
system.cpu0.statFuBusy::SimdFloatDiv                0      0.00%     96.06% # attempts to use FU when none available (Count)
system.cpu0.statFuBusy::SimdFloatMisc               0      0.00%     96.06% # attempts to use FU when none available (Count)
system.cpu0.statFuBusy::SimdFloatMult               0      0.00%     96.06% # attempts to use FU when none available (Count)
system.cpu0.statFuBusy::SimdFloatMultAcc            0      0.00%     96.06% # attempts to use FU when none available (Count)
system.cpu0.statFuBusy::SimdFloatSqrt               0      0.00%     96.06% # attempts to use FU when none available (Count)
system.cpu0.statFuBusy::SimdReduceAdd               0      0.00%     96.06% # attempts to use FU when none available (Count)
system.cpu0.statFuBusy::SimdReduceAlu               0      0.00%     96.06% # attempts to use FU when none available (Count)
system.cpu0.statFuBusy::SimdReduceCmp               0      0.00%     96.06% # attempts to use FU when none available (Count)
system.cpu0.statFuBusy::SimdFloatReduceAdd            0      0.00%     96.06% # attempts to use FU when none available (Count)
system.cpu0.statFuBusy::SimdFloatReduceCmp            0      0.00%     96.06% # attempts to use FU when none available (Count)
system.cpu0.statFuBusy::SimdAes                     0      0.00%     96.06% # attempts to use FU when none available (Count)
system.cpu0.statFuBusy::SimdAesMix                  0      0.00%     96.06% # attempts to use FU when none available (Count)
system.cpu0.statFuBusy::SimdSha1Hash                0      0.00%     96.06% # attempts to use FU when none available (Count)
system.cpu0.statFuBusy::SimdSha1Hash2               0      0.00%     96.06% # attempts to use FU when none available (Count)
system.cpu0.statFuBusy::SimdSha256Hash              0      0.00%     96.06% # attempts to use FU when none available (Count)
system.cpu0.statFuBusy::SimdSha256Hash2             0      0.00%     96.06% # attempts to use FU when none available (Count)
system.cpu0.statFuBusy::SimdShaSigma2               0      0.00%     96.06% # attempts to use FU when none available (Count)
system.cpu0.statFuBusy::SimdShaSigma3               0      0.00%     96.06% # attempts to use FU when none available (Count)
system.cpu0.statFuBusy::SimdPredAlu                 0      0.00%     96.06% # attempts to use FU when none available (Count)
system.cpu0.statFuBusy::MemRead                  2156      0.16%     96.22% # attempts to use FU when none available (Count)
system.cpu0.statFuBusy::MemWrite                 1287      0.09%     96.31% # attempts to use FU when none available (Count)
system.cpu0.statFuBusy::FloatMemRead             4865      0.36%     96.67% # attempts to use FU when none available (Count)
system.cpu0.statFuBusy::FloatMemWrite           45385      3.33%    100.00% # attempts to use FU when none available (Count)
system.cpu0.statFuBusy::IprAccess                   0      0.00%    100.00% # attempts to use FU when none available (Count)
system.cpu0.statFuBusy::InstPrefetch                0      0.00%    100.00% # attempts to use FU when none available (Count)
system.cpu0.statIssuedInstType_0::No_OpClass        26371      0.03%      0.03% # Number of instructions issued per FU type, per thread (Count)
system.cpu0.statIssuedInstType_0::IntAlu     52045157     55.52%     55.55% # Number of instructions issued per FU type, per thread (Count)
system.cpu0.statIssuedInstType_0::IntMult          309      0.00%     55.55% # Number of instructions issued per FU type, per thread (Count)
system.cpu0.statIssuedInstType_0::IntDiv         2980      0.00%     55.56% # Number of instructions issued per FU type, per thread (Count)
system.cpu0.statIssuedInstType_0::FloatAdd      6883547      7.34%     62.90% # Number of instructions issued per FU type, per thread (Count)
system.cpu0.statIssuedInstType_0::FloatCmp            0      0.00%     62.90% # Number of instructions issued per FU type, per thread (Count)
system.cpu0.statIssuedInstType_0::FloatCvt          477      0.00%     62.90% # Number of instructions issued per FU type, per thread (Count)
system.cpu0.statIssuedInstType_0::FloatMult            0      0.00%     62.90% # Number of instructions issued per FU type, per thread (Count)
system.cpu0.statIssuedInstType_0::FloatMultAcc            0      0.00%     62.90% # Number of instructions issued per FU type, per thread (Count)
system.cpu0.statIssuedInstType_0::FloatDiv            0      0.00%     62.90% # Number of instructions issued per FU type, per thread (Count)
system.cpu0.statIssuedInstType_0::FloatMisc            0      0.00%     62.90% # Number of instructions issued per FU type, per thread (Count)
system.cpu0.statIssuedInstType_0::FloatSqrt            0      0.00%     62.90% # Number of instructions issued per FU type, per thread (Count)
system.cpu0.statIssuedInstType_0::SimdAdd         1614      0.00%     62.90% # Number of instructions issued per FU type, per thread (Count)
system.cpu0.statIssuedInstType_0::SimdAddAcc            0      0.00%     62.90% # Number of instructions issued per FU type, per thread (Count)
system.cpu0.statIssuedInstType_0::SimdAlu        31331      0.03%     62.93% # Number of instructions issued per FU type, per thread (Count)
system.cpu0.statIssuedInstType_0::SimdCmp           70      0.00%     62.93% # Number of instructions issued per FU type, per thread (Count)
system.cpu0.statIssuedInstType_0::SimdCvt         4705      0.01%     62.94% # Number of instructions issued per FU type, per thread (Count)
system.cpu0.statIssuedInstType_0::SimdMisc         4001      0.00%     62.94% # Number of instructions issued per FU type, per thread (Count)
system.cpu0.statIssuedInstType_0::SimdMult            0      0.00%     62.94% # Number of instructions issued per FU type, per thread (Count)
system.cpu0.statIssuedInstType_0::SimdMultAcc            0      0.00%     62.94% # Number of instructions issued per FU type, per thread (Count)
system.cpu0.statIssuedInstType_0::SimdShift         1323      0.00%     62.95% # Number of instructions issued per FU type, per thread (Count)
system.cpu0.statIssuedInstType_0::SimdShiftAcc            0      0.00%     62.95% # Number of instructions issued per FU type, per thread (Count)
system.cpu0.statIssuedInstType_0::SimdDiv            0      0.00%     62.95% # Number of instructions issued per FU type, per thread (Count)
system.cpu0.statIssuedInstType_0::SimdSqrt            0      0.00%     62.95% # Number of instructions issued per FU type, per thread (Count)
system.cpu0.statIssuedInstType_0::SimdFloatAdd     12883995     13.75%     76.69% # Number of instructions issued per FU type, per thread (Count)
system.cpu0.statIssuedInstType_0::SimdFloatAlu            0      0.00%     76.69% # Number of instructions issued per FU type, per thread (Count)
system.cpu0.statIssuedInstType_0::SimdFloatCmp           23      0.00%     76.69% # Number of instructions issued per FU type, per thread (Count)
system.cpu0.statIssuedInstType_0::SimdFloatCvt      6017934      6.42%     83.11% # Number of instructions issued per FU type, per thread (Count)
system.cpu0.statIssuedInstType_0::SimdFloatDiv           11      0.00%     83.11% # Number of instructions issued per FU type, per thread (Count)
system.cpu0.statIssuedInstType_0::SimdFloatMisc            0      0.00%     83.11% # Number of instructions issued per FU type, per thread (Count)
system.cpu0.statIssuedInstType_0::SimdFloatMult       756731      0.81%     83.92% # Number of instructions issued per FU type, per thread (Count)
system.cpu0.statIssuedInstType_0::SimdFloatMultAcc            0      0.00%     83.92% # Number of instructions issued per FU type, per thread (Count)
system.cpu0.statIssuedInstType_0::SimdFloatSqrt            0      0.00%     83.92% # Number of instructions issued per FU type, per thread (Count)
system.cpu0.statIssuedInstType_0::SimdReduceAdd            0      0.00%     83.92% # Number of instructions issued per FU type, per thread (Count)
system.cpu0.statIssuedInstType_0::SimdReduceAlu            0      0.00%     83.92% # Number of instructions issued per FU type, per thread (Count)
system.cpu0.statIssuedInstType_0::SimdReduceCmp            0      0.00%     83.92% # Number of instructions issued per FU type, per thread (Count)
system.cpu0.statIssuedInstType_0::SimdFloatReduceAdd            0      0.00%     83.92% # Number of instructions issued per FU type, per thread (Count)
system.cpu0.statIssuedInstType_0::SimdFloatReduceCmp            0      0.00%     83.92% # Number of instructions issued per FU type, per thread (Count)
system.cpu0.statIssuedInstType_0::SimdAes            0      0.00%     83.92% # Number of instructions issued per FU type, per thread (Count)
system.cpu0.statIssuedInstType_0::SimdAesMix            0      0.00%     83.92% # Number of instructions issued per FU type, per thread (Count)
system.cpu0.statIssuedInstType_0::SimdSha1Hash            0      0.00%     83.92% # Number of instructions issued per FU type, per thread (Count)
system.cpu0.statIssuedInstType_0::SimdSha1Hash2            0      0.00%     83.92% # Number of instructions issued per FU type, per thread (Count)
system.cpu0.statIssuedInstType_0::SimdSha256Hash            0      0.00%     83.92% # Number of instructions issued per FU type, per thread (Count)
system.cpu0.statIssuedInstType_0::SimdSha256Hash2            0      0.00%     83.92% # Number of instructions issued per FU type, per thread (Count)
system.cpu0.statIssuedInstType_0::SimdShaSigma2            0      0.00%     83.92% # Number of instructions issued per FU type, per thread (Count)
system.cpu0.statIssuedInstType_0::SimdShaSigma3            0      0.00%     83.92% # Number of instructions issued per FU type, per thread (Count)
system.cpu0.statIssuedInstType_0::SimdPredAlu            0      0.00%     83.92% # Number of instructions issued per FU type, per thread (Count)
system.cpu0.statIssuedInstType_0::MemRead       247949      0.26%     84.18% # Number of instructions issued per FU type, per thread (Count)
system.cpu0.statIssuedInstType_0::MemWrite       197105      0.21%     84.39% # Number of instructions issued per FU type, per thread (Count)
system.cpu0.statIssuedInstType_0::FloatMemRead     12747730     13.60%     97.99% # Number of instructions issued per FU type, per thread (Count)
system.cpu0.statIssuedInstType_0::FloatMemWrite      1882069      2.01%    100.00% # Number of instructions issued per FU type, per thread (Count)
system.cpu0.statIssuedInstType_0::IprAccess            0      0.00%    100.00% # Number of instructions issued per FU type, per thread (Count)
system.cpu0.statIssuedInstType_0::InstPrefetch            0      0.00%    100.00% # Number of instructions issued per FU type, per thread (Count)
system.cpu0.statIssuedInstType_0::total      93735432                       # Number of instructions issued per FU type, per thread (Count)
system.cpu0.issueRate                        0.337358                       # Inst issue rate ((Count/Cycle))
system.cpu0.fuBusy                            1363097                       # FU busy when requested (Count)
system.cpu0.fuBusyRate                       0.014542                       # FU busy rate (busy events/executed inst) ((Count/Count))
system.cpu0.intInstQueueReads               379565275                       # Number of integer instruction queue reads (Count)
system.cpu0.intInstQueueWrites               51656725                       # Number of integer instruction queue writes (Count)
system.cpu0.intInstQueueWakeupAccesses       50964682                       # Number of integer instruction queue wakeup accesses (Count)
system.cpu0.fpInstQueueReads                 86796539                       # Number of floating instruction queue reads (Count)
system.cpu0.fpInstQueueWrites                42511681                       # Number of floating instruction queue writes (Count)
system.cpu0.fpInstQueueWakeupAccesses        42384684                       # Number of floating instruction queue wakeup accesses (Count)
system.cpu0.vecInstQueueReads                       0                       # Number of vector instruction queue reads (Count)
system.cpu0.vecInstQueueWrites                      0                       # Number of vector instruction queue writes (Count)
system.cpu0.vecInstQueueWakeupAccesses              0                       # Number of vector instruction queue wakeup accesses (Count)
system.cpu0.intAluAccesses                   51003585                       # Number of integer alu accesses (Count)
system.cpu0.fpAluAccesses                    44068573                       # Number of floating point alu accesses (Count)
system.cpu0.vecAluAccesses                          0                       # Number of vector alu accesses (Count)
system.cpu0.numInsts                         93703005                       # Number of executed instructions (Count)
system.cpu0.numLoadInsts                     12989075                       # Number of load instructions executed (Count)
system.cpu0.numSquashedInsts                    32427                       # Number of squashed instructions skipped in execute (Count)
system.cpu0.numSwp                                  0                       # Number of swp insts executed (Count)
system.cpu0.numNop                                  0                       # Number of nop insts executed (Count)
system.cpu0.numRefs                          15067209                       # Number of memory reference insts executed (Count)
system.cpu0.numBranches                      10063105                       # Number of branches executed (Count)
system.cpu0.numStoreInsts                     2078134                       # Number of stores executed (Count)
system.cpu0.numRate                          0.337242                       # Inst execution rate ((Count/Cycle))
system.cpu0.timesIdled                           1771                       # Number of times that the entire CPU went into an idle state and unscheduled itself (Count)
system.cpu0.idleCycles                         325589                       # Total number of cycles that the CPU has spent unscheduled due to idling (Cycle)
system.cpu0.committedInsts                   49544532                       # Number of Instructions Simulated (Count)
system.cpu0.committedOps                     92877449                       # Number of Ops (including micro ops) Simulated (Count)
system.cpu0.cpi                              5.608113                       # CPI: Cycles Per Instruction ((Cycle/Count))
system.cpu0.totalCpi                         5.608113                       # CPI: Total CPI of All Threads ((Cycle/Count))
system.cpu0.ipc                              0.178313                       # IPC: Instructions Per Cycle ((Count/Cycle))
system.cpu0.totalIpc                         0.178313                       # IPC: Total IPC of All Threads ((Count/Cycle))
system.cpu0.intRegfileReads                  68188790                       # Number of integer regfile reads (Count)
system.cpu0.intRegfileWrites                 36610583                       # Number of integer regfile writes (Count)
system.cpu0.fpRegfileReads                   57944988                       # Number of floating regfile reads (Count)
system.cpu0.fpRegfileWrites                  34495837                       # Number of floating regfile writes (Count)
system.cpu0.ccRegfileReads                   62200595                       # number of cc regfile reads (Count)
system.cpu0.ccRegfileWrites                  27885795                       # number of cc regfile writes (Count)
system.cpu0.miscRegfileReads                 39212337                       # number of misc regfile reads (Count)
system.cpu0.miscRegfileWrites                     234                       # number of misc regfile writes (Count)
system.cpu0.MemDepUnit__0.insertedLoads      12672866                       # Number of loads inserted to the mem dependence unit. (Count)
system.cpu0.MemDepUnit__0.insertedStores      2084149                       # Number of stores inserted to the mem dependence unit. (Count)
system.cpu0.MemDepUnit__0.conflictingLoads       130840                       # Number of conflicting loads. (Count)
system.cpu0.MemDepUnit__0.conflictingStores       129220                       # Number of conflicting stores. (Count)
system.cpu0.MemDepUnit__1.insertedLoads             0                       # Number of loads inserted to the mem dependence unit. (Count)
system.cpu0.MemDepUnit__1.insertedStores            0                       # Number of stores inserted to the mem dependence unit. (Count)
system.cpu0.MemDepUnit__1.conflictingLoads            0                       # Number of conflicting loads. (Count)
system.cpu0.MemDepUnit__1.conflictingStores            0                       # Number of conflicting stores. (Count)
system.cpu0.MemDepUnit__2.insertedLoads             0                       # Number of loads inserted to the mem dependence unit. (Count)
system.cpu0.MemDepUnit__2.insertedStores            0                       # Number of stores inserted to the mem dependence unit. (Count)
system.cpu0.MemDepUnit__2.conflictingLoads            0                       # Number of conflicting loads. (Count)
system.cpu0.MemDepUnit__2.conflictingStores            0                       # Number of conflicting stores. (Count)
system.cpu0.MemDepUnit__3.insertedLoads             0                       # Number of loads inserted to the mem dependence unit. (Count)
system.cpu0.MemDepUnit__3.insertedStores            0                       # Number of stores inserted to the mem dependence unit. (Count)
system.cpu0.MemDepUnit__3.conflictingLoads            0                       # Number of conflicting loads. (Count)
system.cpu0.MemDepUnit__3.conflictingStores            0                       # Number of conflicting stores. (Count)
system.cpu0.branchPred.lookups               10115538                       # Number of BP lookups (Count)
system.cpu0.branchPred.condPredicted         10051383                       # Number of conditional branches predicted (Count)
system.cpu0.branchPred.condIncorrect             8921                       # Number of conditional branches incorrect (Count)
system.cpu0.branchPred.BTBLookups             3913253                       # Number of BTB lookups (Count)
system.cpu0.branchPred.BTBHits                3909474                       # Number of BTB hits (Count)
system.cpu0.branchPred.BTBHitRatio           0.999034                       # BTB Hit Ratio (Ratio)
system.cpu0.branchPred.RASUsed                  19293                       # Number of times the RAS was used to get a target. (Count)
system.cpu0.branchPred.RASIncorrect                17                       # Number of incorrect RAS predictions. (Count)
system.cpu0.branchPred.indirectLookups          10334                       # Number of indirect predictor lookups. (Count)
system.cpu0.branchPred.indirectHits              5790                       # Number of indirect target hits. (Count)
system.cpu0.branchPred.indirectMisses            4544                       # Number of indirect misses. (Count)
system.cpu0.branchPred.indirectMispredicted          851                       # Number of mispredicted indirect branches. (Count)
system.cpu0.commit.commitSquashedInsts         507983                       # The number of squashed insts skipped by commit (Count)
system.cpu0.commit.commitNonSpecStalls           1110                       # The number of times commit has been forced to stall to communicate backwards (Count)
system.cpu0.commit.branchMispredicts             8446                       # The number of times a branch was mispredicted (Count)
system.cpu0.commit.numCommittedDist::samples    277452773                       # Number of insts commited each cycle (Count)
system.cpu0.commit.numCommittedDist::mean     0.334750                       # Number of insts commited each cycle (Count)
system.cpu0.commit.numCommittedDist::stdev     1.525265                       # Number of insts commited each cycle (Count)
system.cpu0.commit.numCommittedDist::underflows            0      0.00%      0.00% # Number of insts commited each cycle (Count)
system.cpu0.commit.numCommittedDist::0      261713740     94.33%     94.33% # Number of insts commited each cycle (Count)
system.cpu0.commit.numCommittedDist::1        2431323      0.88%     95.20% # Number of insts commited each cycle (Count)
system.cpu0.commit.numCommittedDist::2         391564      0.14%     95.34% # Number of insts commited each cycle (Count)
system.cpu0.commit.numCommittedDist::3        2289039      0.83%     96.17% # Number of insts commited each cycle (Count)
system.cpu0.commit.numCommittedDist::4         373321      0.13%     96.30% # Number of insts commited each cycle (Count)
system.cpu0.commit.numCommittedDist::5          91439      0.03%     96.34% # Number of insts commited each cycle (Count)
system.cpu0.commit.numCommittedDist::6          59255      0.02%     96.36% # Number of insts commited each cycle (Count)
system.cpu0.commit.numCommittedDist::7         334864      0.12%     96.48% # Number of insts commited each cycle (Count)
system.cpu0.commit.numCommittedDist::8        9768228      3.52%    100.00% # Number of insts commited each cycle (Count)
system.cpu0.commit.numCommittedDist::overflows            0      0.00%    100.00% # Number of insts commited each cycle (Count)
system.cpu0.commit.numCommittedDist::min_value            0                       # Number of insts commited each cycle (Count)
system.cpu0.commit.numCommittedDist::max_value            8                       # Number of insts commited each cycle (Count)
system.cpu0.commit.numCommittedDist::total    277452773                       # Number of insts commited each cycle (Count)
system.cpu0.commit.instsCommitted            49544532                       # Number of instructions committed (Count)
system.cpu0.commit.opsCommitted              92877449                       # Number of ops (including micro ops) committed (Count)
system.cpu0.commit.memRefs                   14635712                       # Number of memory references committed (Count)
system.cpu0.commit.loads                     12577327                       # Number of loads committed (Count)
system.cpu0.commit.amos                             0                       # Number of atomic instructions committed (Count)
system.cpu0.commit.membars                        584                       # Number of memory barriers committed (Count)
system.cpu0.commit.branches                  10016419                       # Number of branches committed (Count)
system.cpu0.commit.vectorInstructions               0                       # Number of committed Vector instructions. (Count)
system.cpu0.commit.floating                  42316119                       # Number of committed floating point instructions. (Count)
system.cpu0.commit.integer                   64741463                       # Number of committed integer instructions. (Count)
system.cpu0.commit.functionCalls                 8083                       # Number of function calls committed. (Count)
system.cpu0.commit.committedInstType_0::No_OpClass        12202      0.01%      0.01% # Class of committed instruction (Count)
system.cpu0.commit.committedInstType_0::IntAlu     51689373     55.65%     55.67% # Class of committed instruction (Count)
system.cpu0.commit.committedInstType_0::IntMult          272      0.00%     55.67% # Class of committed instruction (Count)
system.cpu0.commit.committedInstType_0::IntDiv         2684      0.00%     55.67% # Class of committed instruction (Count)
system.cpu0.commit.committedInstType_0::FloatAdd      6878274      7.41%     63.08% # Class of committed instruction (Count)
system.cpu0.commit.committedInstType_0::FloatCmp            0      0.00%     63.08% # Class of committed instruction (Count)
system.cpu0.commit.committedInstType_0::FloatCvt          416      0.00%     63.08% # Class of committed instruction (Count)
system.cpu0.commit.committedInstType_0::FloatMult            0      0.00%     63.08% # Class of committed instruction (Count)
system.cpu0.commit.committedInstType_0::FloatMultAcc            0      0.00%     63.08% # Class of committed instruction (Count)
system.cpu0.commit.committedInstType_0::FloatDiv            0      0.00%     63.08% # Class of committed instruction (Count)
system.cpu0.commit.committedInstType_0::FloatMisc            0      0.00%     63.08% # Class of committed instruction (Count)
system.cpu0.commit.committedInstType_0::FloatSqrt            0      0.00%     63.08% # Class of committed instruction (Count)
system.cpu0.commit.committedInstType_0::SimdAdd         1098      0.00%     63.08% # Class of committed instruction (Count)
system.cpu0.commit.committedInstType_0::SimdAddAcc            0      0.00%     63.08% # Class of committed instruction (Count)
system.cpu0.commit.committedInstType_0::SimdAlu        11814      0.01%     63.09% # Class of committed instruction (Count)
system.cpu0.commit.committedInstType_0::SimdCmp           66      0.00%     63.09% # Class of committed instruction (Count)
system.cpu0.commit.committedInstType_0::SimdCvt         3104      0.00%     63.09% # Class of committed instruction (Count)
system.cpu0.commit.committedInstType_0::SimdMisc         3324      0.00%     63.10% # Class of committed instruction (Count)
system.cpu0.commit.committedInstType_0::SimdMult            0      0.00%     63.10% # Class of committed instruction (Count)
system.cpu0.commit.committedInstType_0::SimdMultAcc            0      0.00%     63.10% # Class of committed instruction (Count)
system.cpu0.commit.committedInstType_0::SimdShift          507      0.00%     63.10% # Class of committed instruction (Count)
system.cpu0.commit.committedInstType_0::SimdShiftAcc            0      0.00%     63.10% # Class of committed instruction (Count)
system.cpu0.commit.committedInstType_0::SimdDiv            0      0.00%     63.10% # Class of committed instruction (Count)
system.cpu0.commit.committedInstType_0::SimdSqrt            0      0.00%     63.10% # Class of committed instruction (Count)
system.cpu0.commit.committedInstType_0::SimdFloatAdd     12879504     13.87%     76.96% # Class of committed instruction (Count)
system.cpu0.commit.committedInstType_0::SimdFloatAlu            0      0.00%     76.96% # Class of committed instruction (Count)
system.cpu0.commit.committedInstType_0::SimdFloatCmp           16      0.00%     76.96% # Class of committed instruction (Count)
system.cpu0.commit.committedInstType_0::SimdFloatCvt      6006789      6.47%     83.43% # Class of committed instruction (Count)
system.cpu0.commit.committedInstType_0::SimdFloatDiv           11      0.00%     83.43% # Class of committed instruction (Count)
system.cpu0.commit.committedInstType_0::SimdFloatMisc            0      0.00%     83.43% # Class of committed instruction (Count)
system.cpu0.commit.committedInstType_0::SimdFloatMult       752283      0.81%     84.24% # Class of committed instruction (Count)
system.cpu0.commit.committedInstType_0::SimdFloatMultAcc            0      0.00%     84.24% # Class of committed instruction (Count)
system.cpu0.commit.committedInstType_0::SimdFloatSqrt            0      0.00%     84.24% # Class of committed instruction (Count)
system.cpu0.commit.committedInstType_0::SimdReduceAdd            0      0.00%     84.24% # Class of committed instruction (Count)
system.cpu0.commit.committedInstType_0::SimdReduceAlu            0      0.00%     84.24% # Class of committed instruction (Count)
system.cpu0.commit.committedInstType_0::SimdReduceCmp            0      0.00%     84.24% # Class of committed instruction (Count)
system.cpu0.commit.committedInstType_0::SimdFloatReduceAdd            0      0.00%     84.24% # Class of committed instruction (Count)
system.cpu0.commit.committedInstType_0::SimdFloatReduceCmp            0      0.00%     84.24% # Class of committed instruction (Count)
system.cpu0.commit.committedInstType_0::SimdAes            0      0.00%     84.24% # Class of committed instruction (Count)
system.cpu0.commit.committedInstType_0::SimdAesMix            0      0.00%     84.24% # Class of committed instruction (Count)
system.cpu0.commit.committedInstType_0::SimdSha1Hash            0      0.00%     84.24% # Class of committed instruction (Count)
system.cpu0.commit.committedInstType_0::SimdSha1Hash2            0      0.00%     84.24% # Class of committed instruction (Count)
system.cpu0.commit.committedInstType_0::SimdSha256Hash            0      0.00%     84.24% # Class of committed instruction (Count)
system.cpu0.commit.committedInstType_0::SimdSha256Hash2            0      0.00%     84.24% # Class of committed instruction (Count)
system.cpu0.commit.committedInstType_0::SimdShaSigma2            0      0.00%     84.24% # Class of committed instruction (Count)
system.cpu0.commit.committedInstType_0::SimdShaSigma3            0      0.00%     84.24% # Class of committed instruction (Count)
system.cpu0.commit.committedInstType_0::SimdPredAlu            0      0.00%     84.24% # Class of committed instruction (Count)
system.cpu0.commit.committedInstType_0::MemRead       185029      0.20%     84.44% # Class of committed instruction (Count)
system.cpu0.commit.committedInstType_0::MemWrite       177040      0.19%     84.63% # Class of committed instruction (Count)
system.cpu0.commit.committedInstType_0::FloatMemRead     12392298     13.34%     97.97% # Class of committed instruction (Count)
system.cpu0.commit.committedInstType_0::FloatMemWrite      1881345      2.03%    100.00% # Class of committed instruction (Count)
system.cpu0.commit.committedInstType_0::IprAccess            0      0.00%    100.00% # Class of committed instruction (Count)
system.cpu0.commit.committedInstType_0::InstPrefetch            0      0.00%    100.00% # Class of committed instruction (Count)
system.cpu0.commit.committedInstType_0::total     92877449                       # Class of committed instruction (Count)
system.cpu0.commit.commitEligibleSamples      9768228                       # number cycles where commit BW limit reached (Cycle)
system.cpu0.dcache.demandHits::cpu00.data      8067178                       # number of demand (read+write) hits (Count)
system.cpu0.dcache.demandHits::total          8067178                       # number of demand (read+write) hits (Count)
system.cpu0.dcache.overallHits::cpu00.data      8067178                       # number of overall hits (Count)
system.cpu0.dcache.overallHits::total         8067178                       # number of overall hits (Count)
system.cpu0.dcache.demandMisses::cpu00.data      6624036                       # number of demand (read+write) misses (Count)
system.cpu0.dcache.demandMisses::total        6624036                       # number of demand (read+write) misses (Count)
system.cpu0.dcache.overallMisses::cpu00.data      6624036                       # number of overall misses (Count)
system.cpu0.dcache.overallMisses::total       6624036                       # number of overall misses (Count)
system.cpu0.dcache.demandMissLatency::cpu00.data 507140868006                       # number of demand (read+write) miss ticks (Tick)
system.cpu0.dcache.demandMissLatency::total 507140868006                       # number of demand (read+write) miss ticks (Tick)
system.cpu0.dcache.overallMissLatency::cpu00.data 507140868006                       # number of overall miss ticks (Tick)
system.cpu0.dcache.overallMissLatency::total 507140868006                       # number of overall miss ticks (Tick)
system.cpu0.dcache.demandAccesses::cpu00.data     14691214                       # number of demand (read+write) accesses (Count)
system.cpu0.dcache.demandAccesses::total     14691214                       # number of demand (read+write) accesses (Count)
system.cpu0.dcache.overallAccesses::cpu00.data     14691214                       # number of overall (read+write) accesses (Count)
system.cpu0.dcache.overallAccesses::total     14691214                       # number of overall (read+write) accesses (Count)
system.cpu0.dcache.demandMissRate::cpu00.data     0.450884                       # miss rate for demand accesses (Ratio)
system.cpu0.dcache.demandMissRate::total     0.450884                       # miss rate for demand accesses (Ratio)
system.cpu0.dcache.overallMissRate::cpu00.data     0.450884                       # miss rate for overall accesses (Ratio)
system.cpu0.dcache.overallMissRate::total     0.450884                       # miss rate for overall accesses (Ratio)
system.cpu0.dcache.demandAvgMissLatency::cpu00.data 76560.705287                       # average overall miss latency in ticks ((Tick/Count))
system.cpu0.dcache.demandAvgMissLatency::total 76560.705287                       # average overall miss latency in ticks ((Tick/Count))
system.cpu0.dcache.overallAvgMissLatency::cpu00.data 76560.705287                       # average overall miss latency ((Tick/Count))
system.cpu0.dcache.overallAvgMissLatency::total 76560.705287                       # average overall miss latency ((Tick/Count))
system.cpu0.dcache.blockedCycles::no_mshrs     40390905                       # number of cycles access was blocked (Cycle)
system.cpu0.dcache.blockedCycles::no_targets          230                       # number of cycles access was blocked (Cycle)
system.cpu0.dcache.blockedCauses::no_mshrs       159647                       # number of times access was blocked (Count)
system.cpu0.dcache.blockedCauses::no_targets            4                       # number of times access was blocked (Count)
system.cpu0.dcache.avgBlocked::no_mshrs    253.001340                       # average number of cycles each access was blocked ((Cycle/Count))
system.cpu0.dcache.avgBlocked::no_targets    57.500000                       # average number of cycles each access was blocked ((Cycle/Count))
system.cpu0.dcache.writebacks::writebacks       253053                       # number of writebacks (Count)
system.cpu0.dcache.writebacks::total           253053                       # number of writebacks (Count)
system.cpu0.dcache.demandMshrHits::cpu00.data      5335894                       # number of demand (read+write) MSHR hits (Count)
system.cpu0.dcache.demandMshrHits::total      5335894                       # number of demand (read+write) MSHR hits (Count)
system.cpu0.dcache.overallMshrHits::cpu00.data      5335894                       # number of overall MSHR hits (Count)
system.cpu0.dcache.overallMshrHits::total      5335894                       # number of overall MSHR hits (Count)
system.cpu0.dcache.demandMshrMisses::cpu00.data      1288142                       # number of demand (read+write) MSHR misses (Count)
system.cpu0.dcache.demandMshrMisses::total      1288142                       # number of demand (read+write) MSHR misses (Count)
system.cpu0.dcache.overallMshrMisses::cpu00.data      1288142                       # number of overall MSHR misses (Count)
system.cpu0.dcache.overallMshrMisses::total      1288142                       # number of overall MSHR misses (Count)
system.cpu0.dcache.demandMshrMissLatency::cpu00.data 174744549756                       # number of demand (read+write) MSHR miss ticks (Tick)
system.cpu0.dcache.demandMshrMissLatency::total 174744549756                       # number of demand (read+write) MSHR miss ticks (Tick)
system.cpu0.dcache.overallMshrMissLatency::cpu00.data 174744549756                       # number of overall MSHR miss ticks (Tick)
system.cpu0.dcache.overallMshrMissLatency::total 174744549756                       # number of overall MSHR miss ticks (Tick)
system.cpu0.dcache.demandMshrMissRate::cpu00.data     0.087681                       # mshr miss ratio for demand accesses (Ratio)
system.cpu0.dcache.demandMshrMissRate::total     0.087681                       # mshr miss ratio for demand accesses (Ratio)
system.cpu0.dcache.overallMshrMissRate::cpu00.data     0.087681                       # mshr miss ratio for overall accesses (Ratio)
system.cpu0.dcache.overallMshrMissRate::total     0.087681                       # mshr miss ratio for overall accesses (Ratio)
system.cpu0.dcache.demandAvgMshrMissLatency::cpu00.data 135656.278389                       # average overall mshr miss latency ((Tick/Count))
system.cpu0.dcache.demandAvgMshrMissLatency::total 135656.278389                       # average overall mshr miss latency ((Tick/Count))
system.cpu0.dcache.overallAvgMshrMissLatency::cpu00.data 135656.278389                       # average overall mshr miss latency ((Tick/Count))
system.cpu0.dcache.overallAvgMshrMissLatency::total 135656.278389                       # average overall mshr miss latency ((Tick/Count))
system.cpu0.dcache.replacements               1286773                       # number of replacements (Count)
system.cpu0.dcache.LockedRMWReadReq.hits::cpu00.data          258                       # number of LockedRMWReadReq hits (Count)
system.cpu0.dcache.LockedRMWReadReq.hits::total          258                       # number of LockedRMWReadReq hits (Count)
system.cpu0.dcache.LockedRMWReadReq.misses::cpu00.data           34                       # number of LockedRMWReadReq misses (Count)
system.cpu0.dcache.LockedRMWReadReq.misses::total           34                       # number of LockedRMWReadReq misses (Count)
system.cpu0.dcache.LockedRMWReadReq.missLatency::cpu00.data      1056500                       # number of LockedRMWReadReq miss ticks (Tick)
system.cpu0.dcache.LockedRMWReadReq.missLatency::total      1056500                       # number of LockedRMWReadReq miss ticks (Tick)
system.cpu0.dcache.LockedRMWReadReq.accesses::cpu00.data          292                       # number of LockedRMWReadReq accesses(hits+misses) (Count)
system.cpu0.dcache.LockedRMWReadReq.accesses::total          292                       # number of LockedRMWReadReq accesses(hits+misses) (Count)
system.cpu0.dcache.LockedRMWReadReq.missRate::cpu00.data     0.116438                       # miss rate for LockedRMWReadReq accesses (Ratio)
system.cpu0.dcache.LockedRMWReadReq.missRate::total     0.116438                       # miss rate for LockedRMWReadReq accesses (Ratio)
system.cpu0.dcache.LockedRMWReadReq.avgMissLatency::cpu00.data 31073.529412                       # average LockedRMWReadReq miss latency ((Tick/Count))
system.cpu0.dcache.LockedRMWReadReq.avgMissLatency::total 31073.529412                       # average LockedRMWReadReq miss latency ((Tick/Count))
system.cpu0.dcache.LockedRMWReadReq.mshrMisses::cpu00.data           34                       # number of LockedRMWReadReq MSHR misses (Count)
system.cpu0.dcache.LockedRMWReadReq.mshrMisses::total           34                       # number of LockedRMWReadReq MSHR misses (Count)
system.cpu0.dcache.LockedRMWReadReq.mshrMissLatency::cpu00.data      2714251                       # number of LockedRMWReadReq MSHR miss ticks (Tick)
system.cpu0.dcache.LockedRMWReadReq.mshrMissLatency::total      2714251                       # number of LockedRMWReadReq MSHR miss ticks (Tick)
system.cpu0.dcache.LockedRMWReadReq.mshrMissRate::cpu00.data     0.116438                       # mshr miss rate for LockedRMWReadReq accesses (Ratio)
system.cpu0.dcache.LockedRMWReadReq.mshrMissRate::total     0.116438                       # mshr miss rate for LockedRMWReadReq accesses (Ratio)
system.cpu0.dcache.LockedRMWReadReq.avgMshrMissLatency::cpu00.data 79830.911765                       # average LockedRMWReadReq mshr miss latency ((Tick/Count))
system.cpu0.dcache.LockedRMWReadReq.avgMshrMissLatency::total 79830.911765                       # average LockedRMWReadReq mshr miss latency ((Tick/Count))
system.cpu0.dcache.LockedRMWWriteReq.hits::cpu00.data          292                       # number of LockedRMWWriteReq hits (Count)
system.cpu0.dcache.LockedRMWWriteReq.hits::total          292                       # number of LockedRMWWriteReq hits (Count)
system.cpu0.dcache.LockedRMWWriteReq.accesses::cpu00.data          292                       # number of LockedRMWWriteReq accesses(hits+misses) (Count)
system.cpu0.dcache.LockedRMWWriteReq.accesses::total          292                       # number of LockedRMWWriteReq accesses(hits+misses) (Count)
system.cpu0.dcache.ReadReq.hits::cpu00.data      6246089                       # number of ReadReq hits (Count)
system.cpu0.dcache.ReadReq.hits::total        6246089                       # number of ReadReq hits (Count)
system.cpu0.dcache.ReadReq.misses::cpu00.data      6387015                       # number of ReadReq misses (Count)
system.cpu0.dcache.ReadReq.misses::total      6387015                       # number of ReadReq misses (Count)
system.cpu0.dcache.ReadReq.missLatency::cpu00.data 464736119750                       # number of ReadReq miss ticks (Tick)
system.cpu0.dcache.ReadReq.missLatency::total 464736119750                       # number of ReadReq miss ticks (Tick)
system.cpu0.dcache.ReadReq.accesses::cpu00.data     12633104                       # number of ReadReq accesses(hits+misses) (Count)
system.cpu0.dcache.ReadReq.accesses::total     12633104                       # number of ReadReq accesses(hits+misses) (Count)
system.cpu0.dcache.ReadReq.missRate::cpu00.data     0.505578                       # miss rate for ReadReq accesses (Ratio)
system.cpu0.dcache.ReadReq.missRate::total     0.505578                       # miss rate for ReadReq accesses (Ratio)
system.cpu0.dcache.ReadReq.avgMissLatency::cpu00.data 72762.647301                       # average ReadReq miss latency ((Tick/Count))
system.cpu0.dcache.ReadReq.avgMissLatency::total 72762.647301                       # average ReadReq miss latency ((Tick/Count))
system.cpu0.dcache.ReadReq.mshrHits::cpu00.data      5335880                       # number of ReadReq MSHR hits (Count)
system.cpu0.dcache.ReadReq.mshrHits::total      5335880                       # number of ReadReq MSHR hits (Count)
system.cpu0.dcache.ReadReq.mshrMisses::cpu00.data      1051135                       # number of ReadReq MSHR misses (Count)
system.cpu0.dcache.ReadReq.mshrMisses::total      1051135                       # number of ReadReq MSHR misses (Count)
system.cpu0.dcache.ReadReq.mshrMissLatency::cpu00.data 132458968750                       # number of ReadReq MSHR miss ticks (Tick)
system.cpu0.dcache.ReadReq.mshrMissLatency::total 132458968750                       # number of ReadReq MSHR miss ticks (Tick)
system.cpu0.dcache.ReadReq.mshrMissRate::cpu00.data     0.083205                       # mshr miss rate for ReadReq accesses (Ratio)
system.cpu0.dcache.ReadReq.mshrMissRate::total     0.083205                       # mshr miss rate for ReadReq accesses (Ratio)
system.cpu0.dcache.ReadReq.avgMshrMissLatency::cpu00.data 126015.182398                       # average ReadReq mshr miss latency ((Tick/Count))
system.cpu0.dcache.ReadReq.avgMshrMissLatency::total 126015.182398                       # average ReadReq mshr miss latency ((Tick/Count))
system.cpu0.dcache.WriteReq.hits::cpu00.data      1821089                       # number of WriteReq hits (Count)
system.cpu0.dcache.WriteReq.hits::total       1821089                       # number of WriteReq hits (Count)
system.cpu0.dcache.WriteReq.misses::cpu00.data       237021                       # number of WriteReq misses (Count)
system.cpu0.dcache.WriteReq.misses::total       237021                       # number of WriteReq misses (Count)
system.cpu0.dcache.WriteReq.missLatency::cpu00.data  42404748256                       # number of WriteReq miss ticks (Tick)
system.cpu0.dcache.WriteReq.missLatency::total  42404748256                       # number of WriteReq miss ticks (Tick)
system.cpu0.dcache.WriteReq.accesses::cpu00.data      2058110                       # number of WriteReq accesses(hits+misses) (Count)
system.cpu0.dcache.WriteReq.accesses::total      2058110                       # number of WriteReq accesses(hits+misses) (Count)
system.cpu0.dcache.WriteReq.missRate::cpu00.data     0.115164                       # miss rate for WriteReq accesses (Ratio)
system.cpu0.dcache.WriteReq.missRate::total     0.115164                       # miss rate for WriteReq accesses (Ratio)
system.cpu0.dcache.WriteReq.avgMissLatency::cpu00.data 178907.135891                       # average WriteReq miss latency ((Tick/Count))
system.cpu0.dcache.WriteReq.avgMissLatency::total 178907.135891                       # average WriteReq miss latency ((Tick/Count))
system.cpu0.dcache.WriteReq.mshrHits::cpu00.data           14                       # number of WriteReq MSHR hits (Count)
system.cpu0.dcache.WriteReq.mshrHits::total           14                       # number of WriteReq MSHR hits (Count)
system.cpu0.dcache.WriteReq.mshrMisses::cpu00.data       237007                       # number of WriteReq MSHR misses (Count)
system.cpu0.dcache.WriteReq.mshrMisses::total       237007                       # number of WriteReq MSHR misses (Count)
system.cpu0.dcache.WriteReq.mshrMissLatency::cpu00.data  42285581006                       # number of WriteReq MSHR miss ticks (Tick)
system.cpu0.dcache.WriteReq.mshrMissLatency::total  42285581006                       # number of WriteReq MSHR miss ticks (Tick)
system.cpu0.dcache.WriteReq.mshrMissRate::cpu00.data     0.115158                       # mshr miss rate for WriteReq accesses (Ratio)
system.cpu0.dcache.WriteReq.mshrMissRate::total     0.115158                       # mshr miss rate for WriteReq accesses (Ratio)
system.cpu0.dcache.WriteReq.avgMshrMissLatency::cpu00.data 178414.903383                       # average WriteReq mshr miss latency ((Tick/Count))
system.cpu0.dcache.WriteReq.avgMshrMissLatency::total 178414.903383                       # average WriteReq mshr miss latency ((Tick/Count))
system.cpu0.dcache.power_state.pwrStateResidencyTicks::UNDEFINED  69462828000                       # Cumulative time (in ticks) in various power states (Tick)
system.cpu0.dcache.tags.tagsInUse         1023.193540                       # Average ticks per tags in use ((Tick/Count))
system.cpu0.dcache.tags.totalRefs             9355907                       # Total number of references to valid blocks. (Count)
system.cpu0.dcache.tags.sampledRefs           1288073                       # Sample count of references to valid blocks. (Count)
system.cpu0.dcache.tags.avgRefs              7.263491                       # Average number of references to valid blocks. ((Count/Count))
system.cpu0.dcache.tags.warmupTick             162250                       # The tick when the warmup percentage was hit. (Tick)
system.cpu0.dcache.tags.occupancies::cpu00.data  1023.193540                       # Average occupied blocks per tick, per requestor ((Count/Tick))
system.cpu0.dcache.tags.avgOccs::cpu00.data     0.999212                       # Average percentage of cache occupancy ((Ratio/Tick))
system.cpu0.dcache.tags.avgOccs::total       0.999212                       # Average percentage of cache occupancy ((Ratio/Tick))
system.cpu0.dcache.tags.occupanciesTaskId::1024         1024                       # Occupied blocks per task id (Count)
system.cpu0.dcache.tags.ageTaskId_1024::0          141                       # Occupied blocks per task id, per block age (Count)
system.cpu0.dcache.tags.ageTaskId_1024::1          882                       # Occupied blocks per task id, per block age (Count)
system.cpu0.dcache.tags.ageTaskId_1024::4            1                       # Occupied blocks per task id, per block age (Count)
system.cpu0.dcache.tags.ratioOccsTaskId::1024            1                       # Ratio of occupied blocks and all blocks, per task id (Ratio)
system.cpu0.dcache.tags.tagAccesses          30671669                       # Number of tag accesses (Count)
system.cpu0.dcache.tags.dataAccesses         30671669                       # Number of data accesses (Count)
system.cpu0.dcache.tags.power_state.pwrStateResidencyTicks::UNDEFINED  69462828000                       # Cumulative time (in ticks) in various power states (Tick)
system.cpu0.decode.idleCycles                 4342301                       # Number of cycles decode is idle (Cycle)
system.cpu0.decode.blockedCycles            260690743                       # Number of cycles decode is blocked (Cycle)
system.cpu0.decode.runCycles                  9389115                       # Number of cycles decode is running (Cycle)
system.cpu0.decode.unblockCycles              3092256                       # Number of cycles decode is unblocking (Cycle)
system.cpu0.decode.squashCycles                 11309                       # Number of cycles decode is squashing (Cycle)
system.cpu0.decode.branchResolved             3907031                       # Number of times decode resolved a branch (Count)
system.cpu0.decode.branchMispred                 1209                       # Number of times decode detected a branch misprediction (Count)
system.cpu0.decode.decodedInsts              93633209                       # Number of instructions handled by decode (Count)
system.cpu0.decode.squashedInsts                 5445                       # Number of squashed instructions handled by decode (Count)
system.cpu0.dtb_walker_cache.blockedCycles::no_mshrs            0                       # number of cycles access was blocked (Cycle)
system.cpu0.dtb_walker_cache.blockedCycles::no_targets            0                       # number of cycles access was blocked (Cycle)
system.cpu0.dtb_walker_cache.blockedCauses::no_mshrs            0                       # number of times access was blocked (Count)
system.cpu0.dtb_walker_cache.blockedCauses::no_targets            0                       # number of times access was blocked (Count)
system.cpu0.dtb_walker_cache.avgBlocked::no_mshrs          nan                       # average number of cycles each access was blocked ((Cycle/Count))
system.cpu0.dtb_walker_cache.avgBlocked::no_targets          nan                       # average number of cycles each access was blocked ((Cycle/Count))
system.cpu0.dtb_walker_cache.replacements            0                       # number of replacements (Count)
system.cpu0.dtb_walker_cache.power_state.pwrStateResidencyTicks::UNDEFINED  69462828000                       # Cumulative time (in ticks) in various power states (Tick)
system.cpu0.dtb_walker_cache.tags.tagsInUse            0                       # Average ticks per tags in use ((Tick/Count))
system.cpu0.dtb_walker_cache.tags.totalRefs            0                       # Total number of references to valid blocks. (Count)
system.cpu0.dtb_walker_cache.tags.sampledRefs            0                       # Sample count of references to valid blocks. (Count)
system.cpu0.dtb_walker_cache.tags.avgRefs          nan                       # Average number of references to valid blocks. ((Count/Count))
system.cpu0.dtb_walker_cache.tags.warmupTick            0                       # The tick when the warmup percentage was hit. (Tick)
system.cpu0.dtb_walker_cache.tags.tagAccesses            0                       # Number of tag accesses (Count)
system.cpu0.dtb_walker_cache.tags.dataAccesses            0                       # Number of data accesses (Count)
system.cpu0.dtb_walker_cache.tags.power_state.pwrStateResidencyTicks::UNDEFINED  69462828000                       # Cumulative time (in ticks) in various power states (Tick)
system.cpu0.fetch.icacheStallCycles           5492306                       # Number of cycles fetch is stalled on an Icache miss (Cycle)
system.cpu0.fetch.insts                      49989798                       # Number of instructions fetch has processed (Count)
system.cpu0.fetch.branches                   10115538                       # Number of branches that fetch encountered (Count)
system.cpu0.fetch.predictedBranches           3934557                       # Number of branches that fetch has predicted taken (Count)
system.cpu0.fetch.cycles                    272014134                       # Number of cycles fetch has run and was not squashing or blocked (Cycle)
system.cpu0.fetch.squashCycles                  24994                       # Number of cycles fetch has spent squashing (Cycle)
system.cpu0.fetch.tlbCycles                       236                       # Number of cycles fetch has spent waiting for tlb (Cycle)
system.cpu0.fetch.miscStallCycles                 785                       # Number of cycles fetch has spent waiting on interrupts, or bad addresses, or out of MSHRs (Cycle)
system.cpu0.fetch.pendingTrapStallCycles         5531                       # Number of stall cycles due to pending traps (Cycle)
system.cpu0.fetch.icacheWaitRetryStallCycles          235                       # Number of stall cycles due to full MSHR (Cycle)
system.cpu0.fetch.cacheLines                  5378192                       # Number of cache lines fetched (Count)
system.cpu0.fetch.icacheSquashes                 3481                       # Number of outstanding Icache misses that were squashed (Count)
system.cpu0.fetch.nisnDist::samples         277525724                       # Number of instructions fetched each cycle (Total) (Count)
system.cpu0.fetch.nisnDist::mean             0.337774                       # Number of instructions fetched each cycle (Total) (Count)
system.cpu0.fetch.nisnDist::stdev            1.512418                       # Number of instructions fetched each cycle (Total) (Count)
system.cpu0.fetch.nisnDist::underflows              0      0.00%      0.00% # Number of instructions fetched each cycle (Total) (Count)
system.cpu0.fetch.nisnDist::0               262365469     94.54%     94.54% # Number of instructions fetched each cycle (Total) (Count)
system.cpu0.fetch.nisnDist::1                  742776      0.27%     94.80% # Number of instructions fetched each cycle (Total) (Count)
system.cpu0.fetch.nisnDist::2                  573190      0.21%     95.01% # Number of instructions fetched each cycle (Total) (Count)
system.cpu0.fetch.nisnDist::3                 1076372      0.39%     95.40% # Number of instructions fetched each cycle (Total) (Count)
system.cpu0.fetch.nisnDist::4                 3231489      1.16%     96.56% # Number of instructions fetched each cycle (Total) (Count)
system.cpu0.fetch.nisnDist::5                   77189      0.03%     96.59% # Number of instructions fetched each cycle (Total) (Count)
system.cpu0.fetch.nisnDist::6                   87934      0.03%     96.62% # Number of instructions fetched each cycle (Total) (Count)
system.cpu0.fetch.nisnDist::7                  187155      0.07%     96.69% # Number of instructions fetched each cycle (Total) (Count)
system.cpu0.fetch.nisnDist::8                 9184150      3.31%    100.00% # Number of instructions fetched each cycle (Total) (Count)
system.cpu0.fetch.nisnDist::overflows               0      0.00%    100.00% # Number of instructions fetched each cycle (Total) (Count)
system.cpu0.fetch.nisnDist::min_value               0                       # Number of instructions fetched each cycle (Total) (Count)
system.cpu0.fetch.nisnDist::max_value               8                       # Number of instructions fetched each cycle (Total) (Count)
system.cpu0.fetch.nisnDist::total           277525724                       # Number of instructions fetched each cycle (Total) (Count)
system.cpu0.fetch.branchRate                 0.036406                       # Number of branch fetches per cycle (Ratio)
system.cpu0.fetch.rate                       0.179916                       # Number of inst fetches per cycle ((Count/Cycle))
system.cpu0.icache.demandHits::cpu00.inst      5374547                       # number of demand (read+write) hits (Count)
system.cpu0.icache.demandHits::total          5374547                       # number of demand (read+write) hits (Count)
system.cpu0.icache.overallHits::cpu00.inst      5374547                       # number of overall hits (Count)
system.cpu0.icache.overallHits::total         5374547                       # number of overall hits (Count)
system.cpu0.icache.demandMisses::cpu00.inst         3644                       # number of demand (read+write) misses (Count)
system.cpu0.icache.demandMisses::total           3644                       # number of demand (read+write) misses (Count)
system.cpu0.icache.overallMisses::cpu00.inst         3644                       # number of overall misses (Count)
system.cpu0.icache.overallMisses::total          3644                       # number of overall misses (Count)
system.cpu0.icache.demandMissLatency::cpu00.inst    196054248                       # number of demand (read+write) miss ticks (Tick)
system.cpu0.icache.demandMissLatency::total    196054248                       # number of demand (read+write) miss ticks (Tick)
system.cpu0.icache.overallMissLatency::cpu00.inst    196054248                       # number of overall miss ticks (Tick)
system.cpu0.icache.overallMissLatency::total    196054248                       # number of overall miss ticks (Tick)
system.cpu0.icache.demandAccesses::cpu00.inst      5378191                       # number of demand (read+write) accesses (Count)
system.cpu0.icache.demandAccesses::total      5378191                       # number of demand (read+write) accesses (Count)
system.cpu0.icache.overallAccesses::cpu00.inst      5378191                       # number of overall (read+write) accesses (Count)
system.cpu0.icache.overallAccesses::total      5378191                       # number of overall (read+write) accesses (Count)
system.cpu0.icache.demandMissRate::cpu00.inst     0.000678                       # miss rate for demand accesses (Ratio)
system.cpu0.icache.demandMissRate::total     0.000678                       # miss rate for demand accesses (Ratio)
system.cpu0.icache.overallMissRate::cpu00.inst     0.000678                       # miss rate for overall accesses (Ratio)
system.cpu0.icache.overallMissRate::total     0.000678                       # miss rate for overall accesses (Ratio)
system.cpu0.icache.demandAvgMissLatency::cpu00.inst 53801.934138                       # average overall miss latency in ticks ((Tick/Count))
system.cpu0.icache.demandAvgMissLatency::total 53801.934138                       # average overall miss latency in ticks ((Tick/Count))
system.cpu0.icache.overallAvgMissLatency::cpu00.inst 53801.934138                       # average overall miss latency ((Tick/Count))
system.cpu0.icache.overallAvgMissLatency::total 53801.934138                       # average overall miss latency ((Tick/Count))
system.cpu0.icache.blockedCycles::no_mshrs         1816                       # number of cycles access was blocked (Cycle)
system.cpu0.icache.blockedCycles::no_targets            0                       # number of cycles access was blocked (Cycle)
system.cpu0.icache.blockedCauses::no_mshrs           20                       # number of times access was blocked (Count)
system.cpu0.icache.blockedCauses::no_targets            0                       # number of times access was blocked (Count)
system.cpu0.icache.avgBlocked::no_mshrs     90.800000                       # average number of cycles each access was blocked ((Cycle/Count))
system.cpu0.icache.avgBlocked::no_targets          nan                       # average number of cycles each access was blocked ((Cycle/Count))
system.cpu0.icache.writebacks::writebacks         2381                       # number of writebacks (Count)
system.cpu0.icache.writebacks::total             2381                       # number of writebacks (Count)
system.cpu0.icache.demandMshrHits::cpu00.inst          741                       # number of demand (read+write) MSHR hits (Count)
system.cpu0.icache.demandMshrHits::total          741                       # number of demand (read+write) MSHR hits (Count)
system.cpu0.icache.overallMshrHits::cpu00.inst          741                       # number of overall MSHR hits (Count)
system.cpu0.icache.overallMshrHits::total          741                       # number of overall MSHR hits (Count)
system.cpu0.icache.demandMshrMisses::cpu00.inst         2903                       # number of demand (read+write) MSHR misses (Count)
system.cpu0.icache.demandMshrMisses::total         2903                       # number of demand (read+write) MSHR misses (Count)
system.cpu0.icache.overallMshrMisses::cpu00.inst         2903                       # number of overall MSHR misses (Count)
system.cpu0.icache.overallMshrMisses::total         2903                       # number of overall MSHR misses (Count)
system.cpu0.icache.demandMshrMissLatency::cpu00.inst    155808498                       # number of demand (read+write) MSHR miss ticks (Tick)
system.cpu0.icache.demandMshrMissLatency::total    155808498                       # number of demand (read+write) MSHR miss ticks (Tick)
system.cpu0.icache.overallMshrMissLatency::cpu00.inst    155808498                       # number of overall MSHR miss ticks (Tick)
system.cpu0.icache.overallMshrMissLatency::total    155808498                       # number of overall MSHR miss ticks (Tick)
system.cpu0.icache.demandMshrMissRate::cpu00.inst     0.000540                       # mshr miss ratio for demand accesses (Ratio)
system.cpu0.icache.demandMshrMissRate::total     0.000540                       # mshr miss ratio for demand accesses (Ratio)
system.cpu0.icache.overallMshrMissRate::cpu00.inst     0.000540                       # mshr miss ratio for overall accesses (Ratio)
system.cpu0.icache.overallMshrMissRate::total     0.000540                       # mshr miss ratio for overall accesses (Ratio)
system.cpu0.icache.demandAvgMshrMissLatency::cpu00.inst 53671.545987                       # average overall mshr miss latency ((Tick/Count))
system.cpu0.icache.demandAvgMshrMissLatency::total 53671.545987                       # average overall mshr miss latency ((Tick/Count))
system.cpu0.icache.overallAvgMshrMissLatency::cpu00.inst 53671.545987                       # average overall mshr miss latency ((Tick/Count))
system.cpu0.icache.overallAvgMshrMissLatency::total 53671.545987                       # average overall mshr miss latency ((Tick/Count))
system.cpu0.icache.replacements                  2381                       # number of replacements (Count)
system.cpu0.icache.ReadReq.hits::cpu00.inst      5374547                       # number of ReadReq hits (Count)
system.cpu0.icache.ReadReq.hits::total        5374547                       # number of ReadReq hits (Count)
system.cpu0.icache.ReadReq.misses::cpu00.inst         3644                       # number of ReadReq misses (Count)
system.cpu0.icache.ReadReq.misses::total         3644                       # number of ReadReq misses (Count)
system.cpu0.icache.ReadReq.missLatency::cpu00.inst    196054248                       # number of ReadReq miss ticks (Tick)
system.cpu0.icache.ReadReq.missLatency::total    196054248                       # number of ReadReq miss ticks (Tick)
system.cpu0.icache.ReadReq.accesses::cpu00.inst      5378191                       # number of ReadReq accesses(hits+misses) (Count)
system.cpu0.icache.ReadReq.accesses::total      5378191                       # number of ReadReq accesses(hits+misses) (Count)
system.cpu0.icache.ReadReq.missRate::cpu00.inst     0.000678                       # miss rate for ReadReq accesses (Ratio)
system.cpu0.icache.ReadReq.missRate::total     0.000678                       # miss rate for ReadReq accesses (Ratio)
system.cpu0.icache.ReadReq.avgMissLatency::cpu00.inst 53801.934138                       # average ReadReq miss latency ((Tick/Count))
system.cpu0.icache.ReadReq.avgMissLatency::total 53801.934138                       # average ReadReq miss latency ((Tick/Count))
system.cpu0.icache.ReadReq.mshrHits::cpu00.inst          741                       # number of ReadReq MSHR hits (Count)
system.cpu0.icache.ReadReq.mshrHits::total          741                       # number of ReadReq MSHR hits (Count)
system.cpu0.icache.ReadReq.mshrMisses::cpu00.inst         2903                       # number of ReadReq MSHR misses (Count)
system.cpu0.icache.ReadReq.mshrMisses::total         2903                       # number of ReadReq MSHR misses (Count)
system.cpu0.icache.ReadReq.mshrMissLatency::cpu00.inst    155808498                       # number of ReadReq MSHR miss ticks (Tick)
system.cpu0.icache.ReadReq.mshrMissLatency::total    155808498                       # number of ReadReq MSHR miss ticks (Tick)
system.cpu0.icache.ReadReq.mshrMissRate::cpu00.inst     0.000540                       # mshr miss rate for ReadReq accesses (Ratio)
system.cpu0.icache.ReadReq.mshrMissRate::total     0.000540                       # mshr miss rate for ReadReq accesses (Ratio)
system.cpu0.icache.ReadReq.avgMshrMissLatency::cpu00.inst 53671.545987                       # average ReadReq mshr miss latency ((Tick/Count))
system.cpu0.icache.ReadReq.avgMshrMissLatency::total 53671.545987                       # average ReadReq mshr miss latency ((Tick/Count))
system.cpu0.icache.power_state.pwrStateResidencyTicks::UNDEFINED  69462828000                       # Cumulative time (in ticks) in various power states (Tick)
system.cpu0.icache.tags.tagsInUse          510.386793                       # Average ticks per tags in use ((Tick/Count))
system.cpu0.icache.tags.totalRefs             5377449                       # Total number of references to valid blocks. (Count)
system.cpu0.icache.tags.sampledRefs              2902                       # Sample count of references to valid blocks. (Count)
system.cpu0.icache.tags.avgRefs           1853.014817                       # Average number of references to valid blocks. ((Count/Count))
system.cpu0.icache.tags.warmupTick              82250                       # The tick when the warmup percentage was hit. (Tick)
system.cpu0.icache.tags.occupancies::cpu00.inst   510.386793                       # Average occupied blocks per tick, per requestor ((Count/Tick))
system.cpu0.icache.tags.avgOccs::cpu00.inst     0.996849                       # Average percentage of cache occupancy ((Ratio/Tick))
system.cpu0.icache.tags.avgOccs::total       0.996849                       # Average percentage of cache occupancy ((Ratio/Tick))
system.cpu0.icache.tags.occupanciesTaskId::1024          510                       # Occupied blocks per task id (Count)
system.cpu0.icache.tags.ageTaskId_1024::0          148                       # Occupied blocks per task id, per block age (Count)
system.cpu0.icache.tags.ageTaskId_1024::1           53                       # Occupied blocks per task id, per block age (Count)
system.cpu0.icache.tags.ageTaskId_1024::4          309                       # Occupied blocks per task id, per block age (Count)
system.cpu0.icache.tags.ratioOccsTaskId::1024     0.996094                       # Ratio of occupied blocks and all blocks, per task id (Ratio)
system.cpu0.icache.tags.tagAccesses          10759284                       # Number of tag accesses (Count)
system.cpu0.icache.tags.dataAccesses         10759284                       # Number of data accesses (Count)
system.cpu0.icache.tags.power_state.pwrStateResidencyTicks::UNDEFINED  69462828000                       # Cumulative time (in ticks) in various power states (Tick)
system.cpu0.iew.idleCycles                          0                       # Number of cycles IEW is idle (Cycle)
system.cpu0.iew.squashCycles                    11309                       # Number of cycles IEW is squashing (Cycle)
system.cpu0.iew.blockCycles                  51806620                       # Number of cycles IEW is blocking (Cycle)
system.cpu0.iew.unblockCycles                16747514                       # Number of cycles IEW is unblocking (Cycle)
system.cpu0.iew.dispatchedInsts              93522810                       # Number of instructions dispatched to IQ (Count)
system.cpu0.iew.dispSquashedInsts                 893                       # Number of squashed instructions skipped by dispatch (Count)
system.cpu0.iew.dispLoadInsts                12672866                       # Number of dispatched load instructions (Count)
system.cpu0.iew.dispStoreInsts                2084149                       # Number of dispatched store instructions (Count)
system.cpu0.iew.dispNonSpecInsts                  663                       # Number of dispatched non-speculative instructions (Count)
system.cpu0.iew.iqFullEvents                     4653                       # Number of times the IQ has become full, causing a stall (Count)
system.cpu0.iew.lsqFullEvents                16406548                       # Number of times the LSQ has become full, causing a stall (Count)
system.cpu0.iew.memOrderViolationEvents           254                       # Number of memory order violations (Count)
system.cpu0.iew.predictedTakenIncorrect          2779                       # Number of branches that were predicted taken incorrectly (Count)
system.cpu0.iew.predictedNotTakenIncorrect         7463                       # Number of branches that were predicted not taken incorrectly (Count)
system.cpu0.iew.branchMispredicts               10242                       # Number of branch mispredicts detected at execute (Count)
system.cpu0.iew.instsToCommit                93360772                       # Cumulative count of insts sent to commit (Count)
system.cpu0.iew.writebackCount               93349366                       # Cumulative count of insts written-back (Count)
system.cpu0.iew.producerInst                 69262799                       # Number of instructions producing a value (Count)
system.cpu0.iew.consumerInst                116208350                       # Number of instructions consuming a value (Count)
system.cpu0.iew.wbRate                       0.335969                       # Insts written-back per cycle ((Count/Cycle))
system.cpu0.iew.wbFanout                     0.596023                       # Average fanout of values written-back ((Count/Count))
system.cpu0.interrupts.clk_domain.clock          4000                       # Clock period in ticks (Tick)
system.cpu0.itb_walker_cache.blockedCycles::no_mshrs            0                       # number of cycles access was blocked (Cycle)
system.cpu0.itb_walker_cache.blockedCycles::no_targets            0                       # number of cycles access was blocked (Cycle)
system.cpu0.itb_walker_cache.blockedCauses::no_mshrs            0                       # number of times access was blocked (Count)
system.cpu0.itb_walker_cache.blockedCauses::no_targets            0                       # number of times access was blocked (Count)
system.cpu0.itb_walker_cache.avgBlocked::no_mshrs          nan                       # average number of cycles each access was blocked ((Cycle/Count))
system.cpu0.itb_walker_cache.avgBlocked::no_targets          nan                       # average number of cycles each access was blocked ((Cycle/Count))
system.cpu0.itb_walker_cache.replacements            0                       # number of replacements (Count)
system.cpu0.itb_walker_cache.power_state.pwrStateResidencyTicks::UNDEFINED  69462828000                       # Cumulative time (in ticks) in various power states (Tick)
[...]
system.tol2bus.pktSize_system.cpu08.dcache.mem_side_port::system.l2.cpu_side_port     49996992                       # Cumulative packet size per connected requestor and responder (Byte)
system.tol2bus.pktSize_system.cpu09.icache.mem_side_port::system.l2.cpu_side_port         4032                       # Cumulative packet size per connected requestor and responder (Byte)
system.tol2bus.pktSize_system.cpu09.dcache.mem_side_port::system.l2.cpu_side_port     49994176                       # Cumulative packet size per connected requestor and responder (Byte)
system.tol2bus.pktSize_system.cpu10.icache.mem_side_port::system.l2.cpu_side_port         4032                       # Cumulative packet size per connected requestor and responder (Byte)
system.tol2bus.pktSize_system.cpu10.dcache.mem_side_port::system.l2.cpu_side_port     49994240                       # Cumulative packet size per connected requestor and responder (Byte)
system.tol2bus.pktSize_system.cpu11.icache.mem_side_port::system.l2.cpu_side_port         4032                       # Cumulative packet size per connected requestor and responder (Byte)
system.tol2bus.pktSize_system.cpu11.dcache.mem_side_port::system.l2.cpu_side_port     49994240                       # Cumulative packet size per connected requestor and responder (Byte)
system.tol2bus.pktSize_system.cpu12.icache.mem_side_port::system.l2.cpu_side_port         4288                       # Cumulative packet size per connected requestor and responder (Byte)
system.tol2bus.pktSize_system.cpu12.dcache.mem_side_port::system.l2.cpu_side_port     49994944                       # Cumulative packet size per connected requestor and responder (Byte)
system.tol2bus.pktSize_system.cpu13.icache.mem_side_port::system.l2.cpu_side_port         4672                       # Cumulative packet size per connected requestor and responder (Byte)
system.tol2bus.pktSize_system.cpu13.dcache.mem_side_port::system.l2.cpu_side_port     49994816                       # Cumulative packet size per connected requestor and responder (Byte)
system.tol2bus.pktSize_system.cpu14.icache.mem_side_port::system.l2.cpu_side_port         4288                       # Cumulative packet size per connected requestor and responder (Byte)
system.tol2bus.pktSize_system.cpu14.dcache.mem_side_port::system.l2.cpu_side_port     49995136                       # Cumulative packet size per connected requestor and responder (Byte)
system.tol2bus.pktSize_system.cpu15.icache.mem_side_port::system.l2.cpu_side_port         4352                       # Cumulative packet size per connected requestor and responder (Byte)
system.tol2bus.pktSize_system.cpu15.dcache.mem_side_port::system.l2.cpu_side_port     49994816                       # Cumulative packet size per connected requestor and responder (Byte)
system.tol2bus.pktSize::total               848697088                       # Cumulative packet size per connected requestor and responder (Byte)
system.tol2bus.snoops                        10407827                       # Total snoops (Count)
system.tol2bus.snoopTraffic                 256372288                       # Total snoop traffic (Byte)
system.tol2bus.snoopFanout::samples          23823190                       # Request fanout histogram (Count)
system.tol2bus.snoopFanout::mean             0.094225                       # Request fanout histogram (Count)
system.tol2bus.snoopFanout::stdev            0.318969                       # Request fanout histogram (Count)
system.tol2bus.snoopFanout::underflows              0      0.00%      0.00% # Request fanout histogram (Count)
system.tol2bus.snoopFanout::0                21612046     90.72%     90.72% # Request fanout histogram (Count)
system.tol2bus.snoopFanout::1                 2206782      9.26%     99.98% # Request fanout histogram (Count)
system.tol2bus.snoopFanout::2                     658      0.00%     99.98% # Request fanout histogram (Count)
system.tol2bus.snoopFanout::3                     250      0.00%     99.99% # Request fanout histogram (Count)
system.tol2bus.snoopFanout::4                     257      0.00%     99.99% # Request fanout histogram (Count)
system.tol2bus.snoopFanout::5                     251      0.00%     99.99% # Request fanout histogram (Count)
system.tol2bus.snoopFanout::6                     242      0.00%     99.99% # Request fanout histogram (Count)
system.tol2bus.snoopFanout::7                     238      0.00%     99.99% # Request fanout histogram (Count)
system.tol2bus.snoopFanout::8                     241      0.00%     99.99% # Request fanout histogram (Count)
system.tol2bus.snoopFanout::9                     236      0.00%     99.99% # Request fanout histogram (Count)
system.tol2bus.snoopFanout::10                    231      0.00%     99.99% # Request fanout histogram (Count)
system.tol2bus.snoopFanout::11                    232      0.00%     99.99% # Request fanout histogram (Count)
system.tol2bus.snoopFanout::12                    236      0.00%     99.99% # Request fanout histogram (Count)
system.tol2bus.snoopFanout::13                    219      0.00%    100.00% # Request fanout histogram (Count)
system.tol2bus.snoopFanout::14                    231      0.00%    100.00% # Request fanout histogram (Count)
system.tol2bus.snoopFanout::15                    782      0.00%    100.00% # Request fanout histogram (Count)
system.tol2bus.snoopFanout::16                     56      0.00%    100.00% # Request fanout histogram (Count)
system.tol2bus.snoopFanout::17                      1      0.00%    100.00% # Request fanout histogram (Count)
system.tol2bus.snoopFanout::18                      1      0.00%    100.00% # Request fanout histogram (Count)
system.tol2bus.snoopFanout::19                      0      0.00%    100.00% # Request fanout histogram (Count)
system.tol2bus.snoopFanout::20                      0      0.00%    100.00% # Request fanout histogram (Count)
system.tol2bus.snoopFanout::21                      0      0.00%    100.00% # Request fanout histogram (Count)
system.tol2bus.snoopFanout::22                      0      0.00%    100.00% # Request fanout histogram (Count)
system.tol2bus.snoopFanout::23                      0      0.00%    100.00% # Request fanout histogram (Count)
system.tol2bus.snoopFanout::24                      0      0.00%    100.00% # Request fanout histogram (Count)
system.tol2bus.snoopFanout::25                      0      0.00%    100.00% # Request fanout histogram (Count)
system.tol2bus.snoopFanout::26                      0      0.00%    100.00% # Request fanout histogram (Count)
system.tol2bus.snoopFanout::27                      0      0.00%    100.00% # Request fanout histogram (Count)
system.tol2bus.snoopFanout::28                      0      0.00%    100.00% # Request fanout histogram (Count)
system.tol2bus.snoopFanout::29                      0      0.00%    100.00% # Request fanout histogram (Count)
system.tol2bus.snoopFanout::30                      0      0.00%    100.00% # Request fanout histogram (Count)
system.tol2bus.snoopFanout::31                      0      0.00%    100.00% # Request fanout histogram (Count)
system.tol2bus.snoopFanout::32                      0      0.00%    100.00% # Request fanout histogram (Count)
system.tol2bus.snoopFanout::33                      0      0.00%    100.00% # Request fanout histogram (Count)
system.tol2bus.snoopFanout::34                      0      0.00%    100.00% # Request fanout histogram (Count)
system.tol2bus.snoopFanout::35                      0      0.00%    100.00% # Request fanout histogram (Count)
system.tol2bus.snoopFanout::36                      0      0.00%    100.00% # Request fanout histogram (Count)
system.tol2bus.snoopFanout::37                      0      0.00%    100.00% # Request fanout histogram (Count)
system.tol2bus.snoopFanout::38                      0      0.00%    100.00% # Request fanout histogram (Count)
system.tol2bus.snoopFanout::39                      0      0.00%    100.00% # Request fanout histogram (Count)
system.tol2bus.snoopFanout::40                      0      0.00%    100.00% # Request fanout histogram (Count)
system.tol2bus.snoopFanout::41                      0      0.00%    100.00% # Request fanout histogram (Count)
system.tol2bus.snoopFanout::42                      0      0.00%    100.00% # Request fanout histogram (Count)
system.tol2bus.snoopFanout::43                      0      0.00%    100.00% # Request fanout histogram (Count)
system.tol2bus.snoopFanout::44                      0      0.00%    100.00% # Request fanout histogram (Count)
system.tol2bus.snoopFanout::45                      0      0.00%    100.00% # Request fanout histogram (Count)
system.tol2bus.snoopFanout::46                      0      0.00%    100.00% # Request fanout histogram (Count)
system.tol2bus.snoopFanout::47                      0      0.00%    100.00% # Request fanout histogram (Count)
system.tol2bus.snoopFanout::48                      0      0.00%    100.00% # Request fanout histogram (Count)
system.tol2bus.snoopFanout::49                      0      0.00%    100.00% # Request fanout histogram (Count)
system.tol2bus.snoopFanout::50                      0      0.00%    100.00% # Request fanout histogram (Count)
system.tol2bus.snoopFanout::51                      0      0.00%    100.00% # Request fanout histogram (Count)
system.tol2bus.snoopFanout::52                      0      0.00%    100.00% # Request fanout histogram (Count)
system.tol2bus.snoopFanout::53                      0      0.00%    100.00% # Request fanout histogram (Count)
system.tol2bus.snoopFanout::54                      0      0.00%    100.00% # Request fanout histogram (Count)
system.tol2bus.snoopFanout::55                      0      0.00%    100.00% # Request fanout histogram (Count)
system.tol2bus.snoopFanout::56                      0      0.00%    100.00% # Request fanout histogram (Count)
system.tol2bus.snoopFanout::57                      0      0.00%    100.00% # Request fanout histogram (Count)
system.tol2bus.snoopFanout::58                      0      0.00%    100.00% # Request fanout histogram (Count)
system.tol2bus.snoopFanout::59                      0      0.00%    100.00% # Request fanout histogram (Count)
system.tol2bus.snoopFanout::60                      0      0.00%    100.00% # Request fanout histogram (Count)
system.tol2bus.snoopFanout::61                      0      0.00%    100.00% # Request fanout histogram (Count)
system.tol2bus.snoopFanout::62                      0      0.00%    100.00% # Request fanout histogram (Count)
system.tol2bus.snoopFanout::63                      0      0.00%    100.00% # Request fanout histogram (Count)
system.tol2bus.snoopFanout::64                      0      0.00%    100.00% # Request fanout histogram (Count)
system.tol2bus.snoopFanout::overflows               0      0.00%    100.00% # Request fanout histogram (Count)
system.tol2bus.snoopFanout::min_value               0                       # Request fanout histogram (Count)
system.tol2bus.snoopFanout::max_value              18                       # Request fanout histogram (Count)
system.tol2bus.snoopFanout::total            23823190                       # Request fanout histogram (Count)
system.tol2bus.power_state.pwrStateResidencyTicks::UNDEFINED  69462828000                       # Cumulative time (in ticks) in various power states (Tick)
system.tol2bus.reqLayer0.occupancy        10363918339                       # Layer occupancy (ticks) (Tick)
system.tol2bus.reqLayer0.utilization              0.1                       # Layer utilization (Ratio)
system.tol2bus.respLayer0.occupancy           2177247                       # Layer occupancy (ticks) (Tick)
system.tol2bus.respLayer0.utilization             0.0                       # Layer utilization (Ratio)
system.tol2bus.respLayer1.occupancy         966087084                       # Layer occupancy (ticks) (Tick)
system.tol2bus.respLayer1.utilization             0.0                       # Layer utilization (Ratio)
system.tol2bus.respLayer12.occupancy            58437                       # Layer occupancy (ticks) (Tick)
system.tol2bus.respLayer12.utilization            0.0                       # Layer utilization (Ratio)
system.tol2bus.respLayer13.occupancy        398699624                       # Layer occupancy (ticks) (Tick)
system.tol2bus.respLayer13.utilization            0.0                       # Layer utilization (Ratio)
system.tol2bus.respLayer16.occupancy            55456                       # Layer occupancy (ticks) (Tick)
system.tol2bus.respLayer16.utilization            0.0                       # Layer utilization (Ratio)
system.tol2bus.respLayer17.occupancy        398699947                       # Layer occupancy (ticks) (Tick)
system.tol2bus.respLayer17.utilization            0.0                       # Layer utilization (Ratio)
system.tol2bus.respLayer20.occupancy            58930                       # Layer occupancy (ticks) (Tick)
system.tol2bus.respLayer20.utilization            0.0                       # Layer utilization (Ratio)
system.tol2bus.respLayer21.occupancy        398697191                       # Layer occupancy (ticks) (Tick)
system.tol2bus.respLayer21.utilization            0.0                       # Layer utilization (Ratio)
system.tol2bus.respLayer24.occupancy            56677                       # Layer occupancy (ticks) (Tick)
system.tol2bus.respLayer24.utilization            0.0                       # Layer utilization (Ratio)
system.tol2bus.respLayer25.occupancy        398694426                       # Layer occupancy (ticks) (Tick)
system.tol2bus.respLayer25.utilization            0.0                       # Layer utilization (Ratio)
system.tol2bus.respLayer28.occupancy            55466                       # Layer occupancy (ticks) (Tick)
system.tol2bus.respLayer28.utilization            0.0                       # Layer utilization (Ratio)
system.tol2bus.respLayer29.occupancy        398693864                       # Layer occupancy (ticks) (Tick)
system.tol2bus.respLayer29.utilization            0.0                       # Layer utilization (Ratio)
system.tol2bus.respLayer32.occupancy            53429                       # Layer occupancy (ticks) (Tick)
system.tol2bus.respLayer32.utilization            0.0                       # Layer utilization (Ratio)
system.tol2bus.respLayer33.occupancy        398692680                       # Layer occupancy (ticks) (Tick)
system.tol2bus.respLayer33.utilization            0.0                       # Layer utilization (Ratio)
system.tol2bus.respLayer36.occupancy            53910                       # Layer occupancy (ticks) (Tick)
system.tol2bus.respLayer36.utilization            0.0                       # Layer utilization (Ratio)
system.tol2bus.respLayer37.occupancy        398695639                       # Layer occupancy (ticks) (Tick)
system.tol2bus.respLayer37.utilization            0.0                       # Layer utilization (Ratio)
system.tol2bus.respLayer4.occupancy            104719                       # Layer occupancy (ticks) (Tick)
system.tol2bus.respLayer4.utilization             0.0                       # Layer utilization (Ratio)
system.tol2bus.respLayer40.occupancy            53685                       # Layer occupancy (ticks) (Tick)
system.tol2bus.respLayer40.utilization            0.0                       # Layer utilization (Ratio)
system.tol2bus.respLayer41.occupancy        398695143                       # Layer occupancy (ticks) (Tick)
system.tol2bus.respLayer41.utilization            0.0                       # Layer utilization (Ratio)
system.tol2bus.respLayer44.occupancy            53663                       # Layer occupancy (ticks) (Tick)
system.tol2bus.respLayer44.utilization            0.0                       # Layer utilization (Ratio)
system.tol2bus.respLayer45.occupancy        398694632                       # Layer occupancy (ticks) (Tick)
system.tol2bus.respLayer45.utilization            0.0                       # Layer utilization (Ratio)
system.tol2bus.respLayer48.occupancy            56684                       # Layer occupancy (ticks) (Tick)
system.tol2bus.respLayer48.utilization            0.0                       # Layer utilization (Ratio)
system.tol2bus.respLayer49.occupancy        398700864                       # Layer occupancy (ticks) (Tick)
system.tol2bus.respLayer49.utilization            0.0                       # Layer utilization (Ratio)
system.tol2bus.respLayer5.occupancy         398768892                       # Layer occupancy (ticks) (Tick)
system.tol2bus.respLayer5.utilization             0.0                       # Layer utilization (Ratio)
system.tol2bus.respLayer52.occupancy            60915                       # Layer occupancy (ticks) (Tick)
system.tol2bus.respLayer52.utilization            0.0                       # Layer utilization (Ratio)
system.tol2bus.respLayer53.occupancy        398702933                       # Layer occupancy (ticks) (Tick)
system.tol2bus.respLayer53.utilization            0.0                       # Layer utilization (Ratio)
system.tol2bus.respLayer56.occupancy            56682                       # Layer occupancy (ticks) (Tick)
system.tol2bus.respLayer56.utilization            0.0                       # Layer utilization (Ratio)
system.tol2bus.respLayer57.occupancy        398699871                       # Layer occupancy (ticks) (Tick)
system.tol2bus.respLayer57.utilization            0.0                       # Layer utilization (Ratio)
system.tol2bus.respLayer60.occupancy            56922                       # Layer occupancy (ticks) (Tick)
system.tol2bus.respLayer60.utilization            0.0                       # Layer utilization (Ratio)
system.tol2bus.respLayer61.occupancy        398699484                       # Layer occupancy (ticks) (Tick)
system.tol2bus.respLayer61.utilization            0.0                       # Layer utilization (Ratio)
system.tol2bus.respLayer8.occupancy             57181                       # Layer occupancy (ticks) (Tick)
system.tol2bus.respLayer8.utilization             0.0                       # Layer utilization (Ratio)
system.tol2bus.respLayer9.occupancy         398697582                       # Layer occupancy (ticks) (Tick)
system.tol2bus.respLayer9.utilization             0.0                       # Layer utilization (Ratio)
system.tol2bus.snoop_filter.totRequests      25999865                       # Total number of requests made to the snoop filter. (Count)
system.tol2bus.snoop_filter.hitSingleRequests     12576891                       # Number of requests hitting in the snoop filter with a single holder of the requested data. (Count)
system.tol2bus.snoop_filter.hitMultiRequests        22551                       # Number of requests hitting in the snoop filter with multiple (>1) holders of the requested data. (Count)
system.tol2bus.snoop_filter.totSnoops         2189455                       # Total number of snoops made to the snoop filter. (Count)
system.tol2bus.snoop_filter.hitSingleSnoops      2188896                       # Number of snoops hitting in the snoop filter with a single holder of the requested data. (Count)
system.tol2bus.snoop_filter.hitMultiSnoops          559                       # Number of snoops hitting in the snoop filter with multiple (>1) holders of the requested data. (Count)
system.voltage_domain.voltage                       1                       # Voltage in Volts (Volt)
system.workload.inst.arm                            0                       # number of arm instructions executed (Count)
system.workload.inst.quiesce                        0                       # number of quiesce instructions executed (Count)

---------- End Simulation Statistics   ----------
