
---------- Begin Simulation Statistics ----------
simSeconds                                   0.028523                       # Number of seconds simulated (Second)
simTicks                                  28523117500                       # Number of ticks simulated (Tick)
finalTick                                 28523117500                       # Number of ticks from beginning of simulation (restored from checkpoints and never reset) (Tick)
simFreq                                  1000000000000                       # The number of ticks per simulated second ((Tick/Second))
hostSeconds                                   1395.54                       # Real time elapsed on the host (Second)
hostTickRate                                 20438758                       # The number of ticks simulated per host second (ticks/s) ((Tick/Second))
hostMemory                                    1346004                       # Number of bytes of host memory used (Byte)
simInsts                                    187986704                       # Number of instructions simulated (Count)
simOps                                      329729305                       # Number of ops (including micro ops) simulated (Count)
hostInstRate                                   134705                       # Simulator instruction rate (inst/s) ((Count/Second))
hostOpRate                                     236274                       # Simulator op (including micro ops) rate (op/s) ((Count/Second))
system.clk_domain.clock                          1000                       # Clock period in ticks (Tick)
system.cpu0.numCycles                       114092471                       # Number of cpu cycles simulated (Cycle)
system.cpu0.numWorkItemsStarted                     0                       # Number of work items this cpu started (Count)
system.cpu0.numWorkItemsCompleted                   0                       # Number of work items this cpu completed (Count)
system.cpu0.instsAdded                       47345372                       # Number of instructions added to the IQ (excludes non-spec) (Count)
system.cpu0.nonSpecInstsAdded                    1406                       # Number of non-speculative instructions added to the IQ (Count)
system.cpu0.instsIssued                      47240271                       # Number of instructions issued (Count)
system.cpu0.squashedInstsIssued                  1941                       # Number of squashed instructions issued (Count)
system.cpu0.squashedInstsExamined              578318                       # Number of squashed instructions iterated over during squash; mainly for profiling (Count)
system.cpu0.squashedOperandsExamined           769455                       # Number of squashed operands that are examined and possibly removed from graph (Count)
system.cpu0.squashedNonSpecRemoved                290                       # Number of squashed non-spec instructions that were removed (Count)
system.cpu0.numIssuedDist::samples          113681198                       # Number of insts issued each cycle (Count)
system.cpu0.numIssuedDist::mean              0.415550                       # Number of insts issued each cycle (Count)
system.cpu0.numIssuedDist::stdev             1.248853                       # Number of insts issued each cycle (Count)
system.cpu0.numIssuedDist::underflows               0      0.00%      0.00% # Number of insts issued each cycle (Count)
system.cpu0.numIssuedDist::0                 97732775     85.97%     85.97% # Number of insts issued each cycle (Count)
system.cpu0.numIssuedDist::1                  4800254      4.22%     90.19% # Number of insts issued each cycle (Count)
system.cpu0.numIssuedDist::2                  3323703      2.92%     93.12% # Number of insts issued each cycle (Count)
system.cpu0.numIssuedDist::3                  2029531      1.79%     94.90% # Number of insts issued each cycle (Count)
system.cpu0.numIssuedDist::4                  2573313      2.26%     97.17% # Number of insts issued each cycle (Count)
system.cpu0.numIssuedDist::5                  1036163      0.91%     98.08% # Number of insts issued each cycle (Count)
system.cpu0.numIssuedDist::6                  1215067      1.07%     99.15% # Number of insts issued each cycle (Count)
system.cpu0.numIssuedDist::7                   823587      0.72%     99.87% # Number of insts issued each cycle (Count)
system.cpu0.numIssuedDist::8                   146805      0.13%    100.00% # Number of insts issued each cycle (Count)
system.cpu0.numIssuedDist::overflows                0      0.00%    100.00% # Number of insts issued each cycle (Count)
system.cpu0.numIssuedDist::min_value                0                       # Number of insts issued each cycle (Count)
system.cpu0.numIssuedDist::max_value                8                       # Number of insts issued each cycle (Count)
system.cpu0.numIssuedDist::total            113681198                       # Number of insts issued each cycle (Count)
system.cpu0.statFuBusy::No_OpClass                  0      0.00%      0.00% # attempts to use FU when none available (Count)
system.cpu0.statFuBusy::IntAlu                  13525      1.94%      1.94% # attempts to use FU when none available (Count)
system.cpu0.statFuBusy::IntMult                     0      0.00%      1.94% # attempts to use FU when none available (Count)
system.cpu0.statFuBusy::IntDiv                      0      0.00%      1.94% # attempts to use FU when none available (Count)
system.cpu0.statFuBusy::FloatAdd                    0      0.00%      1.94% # attempts to use FU when none available (Count)
system.cpu0.statFuBusy::FloatCmp                    0      0.00%      1.94% # attempts to use FU when none available (Count)
system.cpu0.statFuBusy::FloatCvt                    0      0.00%      1.94% # attempts to use FU when none available (Count)
system.cpu0.statFuBusy::FloatMult                   0      0.00%      1.94% # attempts to use FU when none available (Count)
system.cpu0.statFuBusy::FloatMultAcc                0      0.00%      1.94% # attempts to use FU when none available (Count)
system.cpu0.statFuBusy::FloatDiv                    0      0.00%      1.94% # attempts to use FU when none available (Count)
system.cpu0.statFuBusy::FloatMisc                   0      0.00%      1.94% # attempts to use FU when none available (Count)
system.cpu0.statFuBusy::FloatSqrt                   0      0.00%      1.94% # attempts to use FU when none available (Count)
system.cpu0.statFuBusy::SimdAdd                     1      0.00%      1.94% # attempts to use FU when none available (Count)
system.cpu0.statFuBusy::SimdAddAcc                  0      0.00%      1.94% # attempts to use FU when none available (Count)
system.cpu0.statFuBusy::SimdAlu                   116      0.02%      1.96% # attempts to use FU when none available (Count)
system.cpu0.statFuBusy::SimdCmp                     0      0.00%      1.96% # attempts to use FU when none available (Count)
system.cpu0.statFuBusy::SimdCvt                   102      0.01%      1.97% # attempts to use FU when none available (Count)
system.cpu0.statFuBusy::SimdMisc                   64      0.01%      1.98% # attempts to use FU when none available (Count)
system.cpu0.statFuBusy::SimdMult                    0      0.00%      1.98% # attempts to use FU when none available (Count)
system.cpu0.statFuBusy::SimdMultAcc                 0      0.00%      1.98% # attempts to use FU when none available (Count)
system.cpu0.statFuBusy::SimdShift                  19      0.00%      1.98% # attempts to use FU when none available (Count)
system.cpu0.statFuBusy::SimdShiftAcc                0      0.00%      1.98% # attempts to use FU when none available (Count)
system.cpu0.statFuBusy::SimdDiv                     0      0.00%      1.98% # attempts to use FU when none available (Count)
system.cpu0.statFuBusy::SimdSqrt                    0      0.00%      1.98% # attempts to use FU when none available (Count)
system.cpu0.statFuBusy::SimdFloatAdd           648788     93.13%     95.12% # attempts to use FU when none available (Count)
system.cpu0.statFuBusy::SimdFloatAlu                0      0.00%     95.12% # attempts to use FU when none available (Count)
system.cpu0.statFuBusy::SimdFloatCmp                0      0.00%     95.12% # attempts to use FU when none available (Count)
system.cpu0.statFuBusy::SimdFloatCvt                0      0.00%     95.12% # attempts to use FU when none available (Count)
system.cpu0.statFuBusy::SimdFloatDiv                0      0.00%     95.12% # attempts to use FU when none available (Count)
system.cpu0.statFuBusy::SimdFloatMisc               0      0.00%     95.12% # attempts to use FU when none available (Count)
system.cpu0.statFuBusy::SimdFloatMult               0      0.00%     95.12% # attempts to use FU when none available (Count)
system.cpu0.statFuBusy::SimdFloatMultAcc            0      0.00%     95.12% # attempts to use FU when none available (Count)
system.cpu0.statFuBusy::SimdFloatSqrt               0      0.00%     95.12% # attempts to use FU when none available (Count)
system.cpu0.statFuBusy::SimdReduceAdd               0      0.00%     95.12% # attempts to use FU when none available (Count)
system.cpu0.statFuBusy::SimdReduceAlu               0      0.00%     95.12% # attempts to use FU when none available (Count)
system.cpu0.statFuBusy::SimdReduceCmp               0      0.00%     95.12% # attempts to use FU when none available (Count)
system.cpu0.statFuBusy::SimdFloatReduceAdd            0      0.00%     95.12% # attempts to use FU when none available (Count)
system.cpu0.statFuBusy::SimdFloatReduceCmp            0      0.00%     95.12% # attempts to use FU when none available (Count)
system.cpu0.statFuBusy::SimdAes                     0      0.00%     95.12% # attempts to use FU when none available (Count)
system.cpu0.statFuBusy::SimdAesMix                  0      0.00%     95.12% # attempts to use FU when none available (Count)
system.cpu0.statFuBusy::SimdSha1Hash                0      0.00%     95.12% # attempts to use FU when none available (Count)
system.cpu0.statFuBusy::SimdSha1Hash2               0      0.00%     95.12% # attempts to use FU when none available (Count)
system.cpu0.statFuBusy::SimdSha256Hash              0      0.00%     95.12% # attempts to use FU when none available (Count)
system.cpu0.statFuBusy::SimdSha256Hash2             0      0.00%     95.12% # attempts to use FU when none available (Count)
system.cpu0.statFuBusy::SimdShaSigma2               0      0.00%     95.12% # attempts to use FU when none available (Count)
system.cpu0.statFuBusy::SimdShaSigma3               0      0.00%     95.12% # attempts to use FU when none available (Count)
system.cpu0.statFuBusy::SimdPredAlu                 0      0.00%     95.12% # attempts to use FU when none available (Count)
system.cpu0.statFuBusy::MemRead                  2066      0.30%     95.41% # attempts to use FU when none available (Count)
system.cpu0.statFuBusy::MemWrite                 1426      0.20%     95.62% # attempts to use FU when none available (Count)
system.cpu0.statFuBusy::FloatMemRead             5851      0.84%     96.46% # attempts to use FU when none available (Count)
system.cpu0.statFuBusy::FloatMemWrite           24672      3.54%    100.00% # attempts to use FU when none available (Count)
system.cpu0.statFuBusy::IprAccess                   0      0.00%    100.00% # attempts to use FU when none available (Count)
system.cpu0.statFuBusy::InstPrefetch                0      0.00%    100.00% # attempts to use FU when none available (Count)
system.cpu0.statIssuedInstType_0::No_OpClass         6513      0.01%      0.01% # Number of instructions issued per FU type, per thread (Count)
system.cpu0.statIssuedInstType_0::IntAlu     24313157     51.47%     51.48% # Number of instructions issued per FU type, per thread (Count)
system.cpu0.statIssuedInstType_0::IntMult          259      0.00%     51.48% # Number of instructions issued per FU type, per thread (Count)
system.cpu0.statIssuedInstType_0::IntDiv         2936      0.01%     51.49% # Number of instructions issued per FU type, per thread (Count)
system.cpu0.statIssuedInstType_0::FloatAdd      3569142      7.56%     59.04% # Number of instructions issued per FU type, per thread (Count)
system.cpu0.statIssuedInstType_0::FloatCmp            0      0.00%     59.04% # Number of instructions issued per FU type, per thread (Count)
system.cpu0.statIssuedInstType_0::FloatCvt          536      0.00%     59.04% # Number of instructions issued per FU type, per thread (Count)
system.cpu0.statIssuedInstType_0::FloatMult            0      0.00%     59.04% # Number of instructions issued per FU type, per thread (Count)
system.cpu0.statIssuedInstType_0::FloatMultAcc            0      0.00%     59.04% # Number of instructions issued per FU type, per thread (Count)
system.cpu0.statIssuedInstType_0::FloatDiv            0      0.00%     59.04% # Number of instructions issued per FU type, per thread (Count)
system.cpu0.statIssuedInstType_0::FloatMisc            0      0.00%     59.04% # Number of instructions issued per FU type, per thread (Count)
system.cpu0.statIssuedInstType_0::FloatSqrt            0      0.00%     59.04% # Number of instructions issued per FU type, per thread (Count)
system.cpu0.statIssuedInstType_0::SimdAdd         2651      0.01%     59.05% # Number of instructions issued per FU type, per thread (Count)
system.cpu0.statIssuedInstType_0::SimdAddAcc            0      0.00%     59.05% # Number of instructions issued per FU type, per thread (Count)
system.cpu0.statIssuedInstType_0::SimdAlu        27248      0.06%     59.11% # Number of instructions issued per FU type, per thread (Count)
system.cpu0.statIssuedInstType_0::SimdCmp           76      0.00%     59.11% # Number of instructions issued per FU type, per thread (Count)
system.cpu0.statIssuedInstType_0::SimdCvt         6339      0.01%     59.12% # Number of instructions issued per FU type, per thread (Count)
system.cpu0.statIssuedInstType_0::SimdMisc         4374      0.01%     59.13% # Number of instructions issued per FU type, per thread (Count)
system.cpu0.statIssuedInstType_0::SimdMult            0      0.00%     59.13% # Number of instructions issued per FU type, per thread (Count)
system.cpu0.statIssuedInstType_0::SimdMultAcc            0      0.00%     59.13% # Number of instructions issued per FU type, per thread (Count)
system.cpu0.statIssuedInstType_0::SimdShift         1822      0.00%     59.13% # Number of instructions issued per FU type, per thread (Count)
system.cpu0.statIssuedInstType_0::SimdShiftAcc            0      0.00%     59.13% # Number of instructions issued per FU type, per thread (Count)
system.cpu0.statIssuedInstType_0::SimdDiv            0      0.00%     59.13% # Number of instructions issued per FU type, per thread (Count)
system.cpu0.statIssuedInstType_0::SimdSqrt            0      0.00%     59.13% # Number of instructions issued per FU type, per thread (Count)
system.cpu0.statIssuedInstType_0::SimdFloatAdd      6573257     13.91%     73.05% # Number of instructions issued per FU type, per thread (Count)
system.cpu0.statIssuedInstType_0::SimdFloatAlu            0      0.00%     73.05% # Number of instructions issued per FU type, per thread (Count)
system.cpu0.statIssuedInstType_0::SimdFloatCmp           28      0.00%     73.05% # Number of instructions issued per FU type, per thread (Count)
system.cpu0.statIssuedInstType_0::SimdFloatCvt      3016193      6.38%     79.43% # Number of instructions issued per FU type, per thread (Count)
system.cpu0.statIssuedInstType_0::SimdFloatDiv           17      0.00%     79.43% # Number of instructions issued per FU type, per thread (Count)
system.cpu0.statIssuedInstType_0::SimdFloatMisc            0      0.00%     79.43% # Number of instructions issued per FU type, per thread (Count)
system.cpu0.statIssuedInstType_0::SimdFloatMult       505422      1.07%     80.50% # Number of instructions issued per FU type, per thread (Count)
system.cpu0.statIssuedInstType_0::SimdFloatMultAcc            0      0.00%     80.50% # Number of instructions issued per FU type, per thread (Count)
system.cpu0.statIssuedInstType_0::SimdFloatSqrt            0      0.00%     80.50% # Number of instructions issued per FU type, per thread (Count)
system.cpu0.statIssuedInstType_0::SimdReduceAdd            0      0.00%     80.50% # Number of instructions issued per FU type, per thread (Count)
system.cpu0.statIssuedInstType_0::SimdReduceAlu            0      0.00%     80.50% # Number of instructions issued per FU type, per thread (Count)
system.cpu0.statIssuedInstType_0::SimdReduceCmp            0      0.00%     80.50% # Number of instructions issued per FU type, per thread (Count)
system.cpu0.statIssuedInstType_0::SimdFloatReduceAdd            0      0.00%     80.50% # Number of instructions issued per FU type, per thread (Count)
system.cpu0.statIssuedInstType_0::SimdFloatReduceCmp            0      0.00%     80.50% # Number of instructions issued per FU type, per thread (Count)
system.cpu0.statIssuedInstType_0::SimdAes            0      0.00%     80.50% # Number of instructions issued per FU type, per thread (Count)
system.cpu0.statIssuedInstType_0::SimdAesMix            0      0.00%     80.50% # Number of instructions issued per FU type, per thread (Count)
system.cpu0.statIssuedInstType_0::SimdSha1Hash            0      0.00%     80.50% # Number of instructions issued per FU type, per thread (Count)
system.cpu0.statIssuedInstType_0::SimdSha1Hash2            0      0.00%     80.50% # Number of instructions issued per FU type, per thread (Count)
system.cpu0.statIssuedInstType_0::SimdSha256Hash            0      0.00%     80.50% # Number of instructions issued per FU type, per thread (Count)
system.cpu0.statIssuedInstType_0::SimdSha256Hash2            0      0.00%     80.50% # Number of instructions issued per FU type, per thread (Count)
system.cpu0.statIssuedInstType_0::SimdShaSigma2            0      0.00%     80.50% # Number of instructions issued per FU type, per thread (Count)
system.cpu0.statIssuedInstType_0::SimdShaSigma3            0      0.00%     80.50% # Number of instructions issued per FU type, per thread (Count)
system.cpu0.statIssuedInstType_0::SimdPredAlu            0      0.00%     80.50% # Number of instructions issued per FU type, per thread (Count)
system.cpu0.statIssuedInstType_0::MemRead       267497      0.57%     81.07% # Number of instructions issued per FU type, per thread (Count)
system.cpu0.statIssuedInstType_0::MemWrite       130386      0.28%     81.35% # Number of instructions issued per FU type, per thread (Count)
system.cpu0.statIssuedInstType_0::FloatMemRead      7617765     16.13%     97.47% # Number of instructions issued per FU type, per thread (Count)
system.cpu0.statIssuedInstType_0::FloatMemWrite      1194653      2.53%    100.00% # Number of instructions issued per FU type, per thread (Count)
system.cpu0.statIssuedInstType_0::IprAccess            0      0.00%    100.00% # Number of instructions issued per FU type, per thread (Count)
system.cpu0.statIssuedInstType_0::InstPrefetch            0      0.00%    100.00% # Number of instructions issued per FU type, per thread (Count)
system.cpu0.statIssuedInstType_0::total      47240271                       # Number of instructions issued per FU type, per thread (Count)
system.cpu0.issueRate                        0.414052                       # Inst issue rate ((Count/Cycle))
system.cpu0.fuBusy                             696630                       # FU busy when requested (Count)
system.cpu0.fuBusyRate                       0.014747                       # FU busy rate (busy events/executed inst) ((Count/Count))
system.cpu0.intInstQueueReads               161117602                       # Number of integer instruction queue reads (Count)
system.cpu0.intInstQueueWrites               24338218                       # Number of integer instruction queue writes (Count)
system.cpu0.intInstQueueWakeupAccesses       23655225                       # Number of integer instruction queue wakeup accesses (Count)
system.cpu0.fpInstQueueReads                 47742709                       # Number of floating instruction queue reads (Count)
system.cpu0.fpInstQueueWrites                23587155                       # Number of floating instruction queue writes (Count)
system.cpu0.fpInstQueueWakeupAccesses        23512726                       # Number of floating instruction queue wakeup accesses (Count)
system.cpu0.vecInstQueueReads                       0                       # Number of vector instruction queue reads (Count)
system.cpu0.vecInstQueueWrites                      0                       # Number of vector instruction queue writes (Count)
system.cpu0.vecInstQueueWakeupAccesses              0                       # Number of vector instruction queue wakeup accesses (Count)
system.cpu0.intAluAccesses                   23719324                       # Number of integer alu accesses (Count)
system.cpu0.fpAluAccesses                    24211064                       # Number of floating point alu accesses (Count)
system.cpu0.vecAluAccesses                          0                       # Number of vector alu accesses (Count)
system.cpu0.numInsts                         47208116                       # Number of executed instructions (Count)
system.cpu0.numLoadInsts                      7879395                       # Number of load instructions executed (Count)
system.cpu0.numSquashedInsts                    32155                       # Number of squashed instructions skipped in execute (Count)
system.cpu0.numSwp                                  0                       # Number of swp insts executed (Count)
system.cpu0.numNop                                  0                       # Number of nop insts executed (Count)
system.cpu0.numRefs                           9203420                       # Number of memory reference insts executed (Count)
system.cpu0.numBranches                       4866699                       # Number of branches executed (Count)
system.cpu0.numStoreInsts                     1324025                       # Number of stores executed (Count)
system.cpu0.numRate                          0.413771                       # Inst execution rate ((Count/Cycle))
system.cpu0.timesIdled                           1924                       # Number of times that the entire CPU went into an idle state and unscheduled itself (Count)
system.cpu0.idleCycles                         411273                       # Total number of cycles that the CPU has spent unscheduled due to idling (Cycle)
system.cpu0.committedInsts                   25626561                       # Number of Instructions Simulated (Count)
system.cpu0.committedOps                     46768454                       # Number of Ops (including micro ops) Simulated (Count)
system.cpu0.cpi                              4.452118                       # CPI: Cycles Per Instruction ((Cycle/Count))
system.cpu0.totalCpi                         4.452118                       # CPI: Total CPI of All Threads ((Cycle/Count))
system.cpu0.ipc                              0.224612                       # IPC: Instructions Per Cycle ((Count/Cycle))
system.cpu0.totalIpc                         0.224612                       # IPC: Total IPC of All Threads ((Count/Cycle))
system.cpu0.intRegfileReads                  35291137                       # Number of integer regfile reads (Count)
system.cpu0.intRegfileWrites                 16753790                       # Number of integer regfile writes (Count)
system.cpu0.fpRegfileReads                   30577830                       # Number of floating regfile reads (Count)
system.cpu0.fpRegfileWrites                  19309402                       # Number of floating regfile writes (Count)
system.cpu0.ccRegfileReads                   30279550                       # number of cc regfile reads (Count)
system.cpu0.ccRegfileWrites                  13097375                       # number of cc regfile writes (Count)
system.cpu0.miscRegfileReads                 19458289                       # number of misc regfile reads (Count)
system.cpu0.miscRegfileWrites                     234                       # number of misc regfile writes (Count)
system.cpu0.MemDepUnit__0.insertedLoads       7876406                       # Number of loads inserted to the mem dependence unit. (Count)
system.cpu0.MemDepUnit__0.insertedStores      1329691                       # Number of stores inserted to the mem dependence unit. (Count)
system.cpu0.MemDepUnit__0.conflictingLoads        67646                       # Number of conflicting loads. (Count)
system.cpu0.MemDepUnit__0.conflictingStores        66328                       # Number of conflicting stores. (Count)
system.cpu0.MemDepUnit__1.insertedLoads             0                       # Number of loads inserted to the mem dependence unit. (Count)
system.cpu0.MemDepUnit__1.insertedStores            0                       # Number of stores inserted to the mem dependence unit. (Count)
system.cpu0.MemDepUnit__1.conflictingLoads            0                       # Number of conflicting loads. (Count)
system.cpu0.MemDepUnit__1.conflictingStores            0                       # Number of conflicting stores. (Count)
system.cpu0.MemDepUnit__2.insertedLoads             0                       # Number of loads inserted to the mem dependence unit. (Count)
system.cpu0.MemDepUnit__2.insertedStores            0                       # Number of stores inserted to the mem dependence unit. (Count)
system.cpu0.MemDepUnit__2.conflictingLoads            0                       # Number of conflicting loads. (Count)
system.cpu0.MemDepUnit__2.conflictingStores            0                       # Number of conflicting stores. (Count)
system.cpu0.MemDepUnit__3.insertedLoads             0                       # Number of loads inserted to the mem dependence unit. (Count)
system.cpu0.MemDepUnit__3.insertedStores            0                       # Number of stores inserted to the mem dependence unit. (Count)
system.cpu0.MemDepUnit__3.conflictingLoads            0                       # Number of conflicting loads. (Count)
system.cpu0.MemDepUnit__3.conflictingStores            0                       # Number of conflicting stores. (Count)
system.cpu0.branchPred.lookups                4922008                       # Number of BP lookups (Count)
system.cpu0.branchPred.condPredicted          4866325                       # Number of conditional branches predicted (Count)
system.cpu0.branchPred.condIncorrect             9103                       # Number of conditional branches incorrect (Count)
system.cpu0.branchPred.BTBLookups             1705011                       # Number of BTB lookups (Count)
system.cpu0.branchPred.BTBHits                1701324                       # Number of BTB hits (Count)
system.cpu0.branchPred.BTBHitRatio           0.997838                       # BTB Hit Ratio (Ratio)
system.cpu0.branchPred.RASUsed                  19614                       # Number of times the RAS was used to get a target. (Count)
system.cpu0.branchPred.RASIncorrect                 5                       # Number of incorrect RAS predictions. (Count)
system.cpu0.branchPred.indirectLookups          11024                       # Number of indirect predictor lookups. (Count)
system.cpu0.branchPred.indirectHits              6735                       # Number of indirect target hits. (Count)
system.cpu0.branchPred.indirectMisses            4289                       # Number of indirect misses. (Count)
system.cpu0.branchPred.indirectMispredicted          881                       # Number of mispredicted indirect branches. (Count)
system.cpu0.commit.commitSquashedInsts         465126                       # The number of squashed insts skipped by commit (Count)
system.cpu0.commit.commitNonSpecStalls           1116                       # The number of times commit has been forced to stall to communicate backwards (Count)
system.cpu0.commit.branchMispredicts             9342                       # The number of times a branch was mispredicted (Count)
system.cpu0.commit.numCommittedDist::samples    113613552                       # Number of insts commited each cycle (Count)
system.cpu0.commit.numCommittedDist::mean     0.411645                       # Number of insts commited each cycle (Count)
system.cpu0.commit.numCommittedDist::stdev     1.619498                       # Number of insts commited each cycle (Count)
system.cpu0.commit.numCommittedDist::underflows            0      0.00%      0.00% # Number of insts commited each cycle (Count)
system.cpu0.commit.numCommittedDist::0      104301248     91.80%     91.80% # Number of insts commited each cycle (Count)
system.cpu0.commit.numCommittedDist::1        1866816      1.64%     93.45% # Number of insts commited each cycle (Count)
system.cpu0.commit.numCommittedDist::2         814480      0.72%     94.16% # Number of insts commited each cycle (Count)
system.cpu0.commit.numCommittedDist::3        1309766      1.15%     95.32% # Number of insts commited each cycle (Count)
system.cpu0.commit.numCommittedDist::4         508569      0.45%     95.76% # Number of insts commited each cycle (Count)
system.cpu0.commit.numCommittedDist::5         297110      0.26%     96.03% # Number of insts commited each cycle (Count)
system.cpu0.commit.numCommittedDist::6         137730      0.12%     96.15% # Number of insts commited each cycle (Count)
system.cpu0.commit.numCommittedDist::7          25490      0.02%     96.17% # Number of insts commited each cycle (Count)
system.cpu0.commit.numCommittedDist::8        4352343      3.83%    100.00% # Number of insts commited each cycle (Count)
system.cpu0.commit.numCommittedDist::overflows            0      0.00%    100.00% # Number of insts commited each cycle (Count)
system.cpu0.commit.numCommittedDist::min_value            0                       # Number of insts commited each cycle (Count)
system.cpu0.commit.numCommittedDist::max_value            8                       # Number of insts commited each cycle (Count)
system.cpu0.commit.numCommittedDist::total    113613552                       # Number of insts commited each cycle (Count)
system.cpu0.commit.instsCommitted            25626561                       # Number of instructions committed (Count)
system.cpu0.commit.opsCommitted              46768454                       # Number of ops (including micro ops) committed (Count)
system.cpu0.commit.memRefs                    9099841                       # Number of memory references committed (Count)
system.cpu0.commit.loads                      7792940                       # Number of loads committed (Count)
system.cpu0.commit.amos                             0                       # Number of atomic instructions committed (Count)
system.cpu0.commit.membars                        588                       # Number of memory barriers committed (Count)
system.cpu0.commit.branches                   4829538                       # Number of branches committed (Count)
system.cpu0.commit.vectorInstructions               0                       # Number of committed Vector instructions. (Count)
system.cpu0.commit.floating                  23455425                       # Number of committed floating point instructions. (Count)
system.cpu0.commit.integer                   31987059                       # Number of committed integer instructions. (Count)
system.cpu0.commit.functionCalls                 9257                       # Number of function calls committed. (Count)
system.cpu0.commit.committedInstType_0::No_OpClass         2171      0.00%      0.00% # Class of committed instruction (Count)
system.cpu0.commit.committedInstType_0::IntAlu     23992452     51.30%     51.31% # Class of committed instruction (Count)
system.cpu0.commit.committedInstType_0::IntMult          236      0.00%     51.31% # Class of committed instruction (Count)
system.cpu0.commit.committedInstType_0::IntDiv         2648      0.01%     51.31% # Class of committed instruction (Count)
system.cpu0.commit.committedInstType_0::FloatAdd      3565877      7.62%     58.94% # Class of committed instruction (Count)
system.cpu0.commit.committedInstType_0::FloatCmp            0      0.00%     58.94% # Class of committed instruction (Count)
system.cpu0.commit.committedInstType_0::FloatCvt          416      0.00%     58.94% # Class of committed instruction (Count)
system.cpu0.commit.committedInstType_0::FloatMult            0      0.00%     58.94% # Class of committed instruction (Count)
system.cpu0.commit.committedInstType_0::FloatMultAcc            0      0.00%     58.94% # Class of committed instruction (Count)
system.cpu0.commit.committedInstType_0::FloatDiv            0      0.00%     58.94% # Class of committed instruction (Count)
system.cpu0.commit.committedInstType_0::FloatMisc            0      0.00%     58.94% # Class of committed instruction (Count)
system.cpu0.commit.committedInstType_0::FloatSqrt            0      0.00%     58.94% # Class of committed instruction (Count)
system.cpu0.commit.committedInstType_0::SimdAdd         2080      0.00%     58.94% # Class of committed instruction (Count)
system.cpu0.commit.committedInstType_0::SimdAddAcc            0      0.00%     58.94% # Class of committed instruction (Count)
system.cpu0.commit.committedInstType_0::SimdAlu        14509      0.03%     58.97% # Class of committed instruction (Count)
system.cpu0.commit.committedInstType_0::SimdCmp           72      0.00%     58.97% # Class of committed instruction (Count)
system.cpu0.commit.committedInstType_0::SimdCvt         4652      0.01%     58.98% # Class of committed instruction (Count)
system.cpu0.commit.committedInstType_0::SimdMisc         3761      0.01%     58.99% # Class of committed instruction (Count)
system.cpu0.commit.committedInstType_0::SimdMult            0      0.00%     58.99% # Class of committed instruction (Count)
system.cpu0.commit.committedInstType_0::SimdMultAcc            0      0.00%     58.99% # Class of committed instruction (Count)
system.cpu0.commit.committedInstType_0::SimdShift          932      0.00%     58.99% # Class of committed instruction (Count)
system.cpu0.commit.committedInstType_0::SimdShiftAcc            0      0.00%     58.99% # Class of committed instruction (Count)
system.cpu0.commit.committedInstType_0::SimdDiv            0      0.00%     58.99% # Class of committed instruction (Count)
system.cpu0.commit.committedInstType_0::SimdSqrt            0      0.00%     58.99% # Class of committed instruction (Count)
system.cpu0.commit.committedInstType_0::SimdFloatAdd      6567908     14.04%     73.04% # Class of committed instruction (Count)
system.cpu0.commit.committedInstType_0::SimdFloatAlu            0      0.00%     73.04% # Class of committed instruction (Count)
system.cpu0.commit.committedInstType_0::SimdFloatCmp           24      0.00%     73.04% # Class of committed instruction (Count)
system.cpu0.commit.committedInstType_0::SimdFloatCvt      3008125      6.43%     79.47% # Class of committed instruction (Count)
system.cpu0.commit.committedInstType_0::SimdFloatDiv           15      0.00%     79.47% # Class of committed instruction (Count)
system.cpu0.commit.committedInstType_0::SimdFloatMisc            0      0.00%     79.47% # Class of committed instruction (Count)
system.cpu0.commit.committedInstType_0::SimdFloatMult       502735      1.07%     80.54% # Class of committed instruction (Count)
system.cpu0.commit.committedInstType_0::SimdFloatMultAcc            0      0.00%     80.54% # Class of committed instruction (Count)
system.cpu0.commit.committedInstType_0::SimdFloatSqrt            0      0.00%     80.54% # Class of committed instruction (Count)
system.cpu0.commit.committedInstType_0::SimdReduceAdd            0      0.00%     80.54% # Class of committed instruction (Count)
system.cpu0.commit.committedInstType_0::SimdReduceAlu            0      0.00%     80.54% # Class of committed instruction (Count)
system.cpu0.commit.committedInstType_0::SimdReduceCmp            0      0.00%     80.54% # Class of committed instruction (Count)
system.cpu0.commit.committedInstType_0::SimdFloatReduceAdd            0      0.00%     80.54% # Class of committed instruction (Count)
system.cpu0.commit.committedInstType_0::SimdFloatReduceCmp            0      0.00%     80.54% # Class of committed instruction (Count)
system.cpu0.commit.committedInstType_0::SimdAes            0      0.00%     80.54% # Class of committed instruction (Count)
system.cpu0.commit.committedInstType_0::SimdAesMix            0      0.00%     80.54% # Class of committed instruction (Count)
system.cpu0.commit.committedInstType_0::SimdSha1Hash            0      0.00%     80.54% # Class of committed instruction (Count)
system.cpu0.commit.committedInstType_0::SimdSha1Hash2            0      0.00%     80.54% # Class of committed instruction (Count)
system.cpu0.commit.committedInstType_0::SimdSha256Hash            0      0.00%     80.54% # Class of committed instruction (Count)
system.cpu0.commit.committedInstType_0::SimdSha256Hash2            0      0.00%     80.54% # Class of committed instruction (Count)
system.cpu0.commit.committedInstType_0::SimdShaSigma2            0      0.00%     80.54% # Class of committed instruction (Count)
system.cpu0.commit.committedInstType_0::SimdShaSigma3            0      0.00%     80.54% # Class of committed instruction (Count)
system.cpu0.commit.committedInstType_0::SimdPredAlu            0      0.00%     80.54% # Class of committed instruction (Count)
system.cpu0.commit.committedInstType_0::MemRead       209010      0.45%     80.99% # Class of committed instruction (Count)
system.cpu0.commit.committedInstType_0::MemWrite       112957      0.24%     81.23% # Class of committed instruction (Count)
system.cpu0.commit.committedInstType_0::FloatMemRead      7583930     16.22%     97.45% # Class of committed instruction (Count)
system.cpu0.commit.committedInstType_0::FloatMemWrite      1193944      2.55%    100.00% # Class of committed instruction (Count)
system.cpu0.commit.committedInstType_0::IprAccess            0      0.00%    100.00% # Class of committed instruction (Count)
system.cpu0.commit.committedInstType_0::InstPrefetch            0      0.00%    100.00% # Class of committed instruction (Count)
system.cpu0.commit.committedInstType_0::total     46768454                       # Class of committed instruction (Count)
system.cpu0.commit.commitEligibleSamples      4352343                       # number cycles where commit BW limit reached (Cycle)
system.cpu0.dcache.demandHits::cpu00.data      5839106                       # number of demand (read+write) hits (Count)
system.cpu0.dcache.demandHits::total          5839106                       # number of demand (read+write) hits (Count)
system.cpu0.dcache.overallHits::cpu00.data      5839106                       # number of overall hits (Count)
system.cpu0.dcache.overallHits::total         5839106                       # number of overall hits (Count)
system.cpu0.dcache.demandMisses::cpu00.data      3314563                       # number of demand (read+write) misses (Count)
system.cpu0.dcache.demandMisses::total        3314563                       # number of demand (read+write) misses (Count)
system.cpu0.dcache.overallMisses::cpu00.data      3314563                       # number of overall misses (Count)
system.cpu0.dcache.overallMisses::total       3314563                       # number of overall misses (Count)
system.cpu0.dcache.demandMissLatency::cpu00.data 174722533993                       # number of demand (read+write) miss ticks (Tick)
system.cpu0.dcache.demandMissLatency::total 174722533993                       # number of demand (read+write) miss ticks (Tick)
system.cpu0.dcache.overallMissLatency::cpu00.data 174722533993                       # number of overall miss ticks (Tick)
system.cpu0.dcache.overallMissLatency::total 174722533993                       # number of overall miss ticks (Tick)
system.cpu0.dcache.demandAccesses::cpu00.data      9153669                       # number of demand (read+write) accesses (Count)
system.cpu0.dcache.demandAccesses::total      9153669                       # number of demand (read+write) accesses (Count)
system.cpu0.dcache.overallAccesses::cpu00.data      9153669                       # number of overall (read+write) accesses (Count)
system.cpu0.dcache.overallAccesses::total      9153669                       # number of overall (read+write) accesses (Count)
system.cpu0.dcache.demandMissRate::cpu00.data     0.362102                       # miss rate for demand accesses (Ratio)
system.cpu0.dcache.demandMissRate::total     0.362102                       # miss rate for demand accesses (Ratio)
system.cpu0.dcache.overallMissRate::cpu00.data     0.362102                       # miss rate for overall accesses (Ratio)
system.cpu0.dcache.overallMissRate::total     0.362102                       # miss rate for overall accesses (Ratio)
system.cpu0.dcache.demandAvgMissLatency::cpu00.data 52713.595727                       # average overall miss latency in ticks ((Tick/Count))
system.cpu0.dcache.demandAvgMissLatency::total 52713.595727                       # average overall miss latency in ticks ((Tick/Count))
system.cpu0.dcache.overallAvgMissLatency::cpu00.data 52713.595727                       # average overall miss latency ((Tick/Count))
system.cpu0.dcache.overallAvgMissLatency::total 52713.595727                       # average overall miss latency ((Tick/Count))
system.cpu0.dcache.blockedCycles::no_mshrs      2783361                       # number of cycles access was blocked (Cycle)
system.cpu0.dcache.blockedCycles::no_targets         4280                       # number of cycles access was blocked (Cycle)
system.cpu0.dcache.blockedCauses::no_mshrs        62685                       # number of times access was blocked (Count)
system.cpu0.dcache.blockedCauses::no_targets           23                       # number of times access was blocked (Count)
system.cpu0.dcache.avgBlocked::no_mshrs     44.402345                       # average number of cycles each access was blocked ((Cycle/Count))
system.cpu0.dcache.avgBlocked::no_targets   186.086957                       # average number of cycles each access was blocked ((Cycle/Count))
system.cpu0.dcache.writebacks::writebacks       159421                       # number of writebacks (Count)
system.cpu0.dcache.writebacks::total           159421                       # number of writebacks (Count)
system.cpu0.dcache.demandMshrHits::cpu00.data      2588261                       # number of demand (read+write) MSHR hits (Count)
system.cpu0.dcache.demandMshrHits::total      2588261                       # number of demand (read+write) MSHR hits (Count)
system.cpu0.dcache.overallMshrHits::cpu00.data      2588261                       # number of overall MSHR hits (Count)
system.cpu0.dcache.overallMshrHits::total      2588261                       # number of overall MSHR hits (Count)
system.cpu0.dcache.demandMshrMisses::cpu00.data       726302                       # number of demand (read+write) MSHR misses (Count)
system.cpu0.dcache.demandMshrMisses::total       726302                       # number of demand (read+write) MSHR misses (Count)
system.cpu0.dcache.overallMshrMisses::cpu00.data       726302                       # number of overall MSHR misses (Count)
system.cpu0.dcache.overallMshrMisses::total       726302                       # number of overall MSHR misses (Count)
system.cpu0.dcache.demandMshrMissLatency::cpu00.data  65040280243                       # number of demand (read+write) MSHR miss ticks (Tick)
system.cpu0.dcache.demandMshrMissLatency::total  65040280243                       # number of demand (read+write) MSHR miss ticks (Tick)
system.cpu0.dcache.overallMshrMissLatency::cpu00.data  65040280243                       # number of overall MSHR miss ticks (Tick)
system.cpu0.dcache.overallMshrMissLatency::total  65040280243                       # number of overall MSHR miss ticks (Tick)
system.cpu0.dcache.demandMshrMissRate::cpu00.data     0.079345                       # mshr miss ratio for demand accesses (Ratio)
system.cpu0.dcache.demandMshrMissRate::total     0.079345                       # mshr miss ratio for demand accesses (Ratio)
system.cpu0.dcache.overallMshrMissRate::cpu00.data     0.079345                       # mshr miss ratio for overall accesses (Ratio)
system.cpu0.dcache.overallMshrMissRate::total     0.079345                       # mshr miss ratio for overall accesses (Ratio)
system.cpu0.dcache.demandAvgMshrMissLatency::cpu00.data 89549.912079                       # average overall mshr miss latency ((Tick/Count))
system.cpu0.dcache.demandAvgMshrMissLatency::total 89549.912079                       # average overall mshr miss latency ((Tick/Count))
system.cpu0.dcache.overallAvgMshrMissLatency::cpu00.data 89549.912079                       # average overall mshr miss latency ((Tick/Count))
system.cpu0.dcache.overallAvgMshrMissLatency::total 89549.912079                       # average overall mshr miss latency ((Tick/Count))
system.cpu0.dcache.replacements                724899                       # number of replacements (Count)
system.cpu0.dcache.LockedRMWReadReq.hits::cpu00.data          251                       # number of LockedRMWReadReq hits (Count)
system.cpu0.dcache.LockedRMWReadReq.hits::total          251                       # number of LockedRMWReadReq hits (Count)
system.cpu0.dcache.LockedRMWReadReq.misses::cpu00.data           43                       # number of LockedRMWReadReq misses (Count)
system.cpu0.dcache.LockedRMWReadReq.misses::total           43                       # number of LockedRMWReadReq misses (Count)
system.cpu0.dcache.LockedRMWReadReq.missLatency::cpu00.data       975750                       # number of LockedRMWReadReq miss ticks (Tick)
system.cpu0.dcache.LockedRMWReadReq.missLatency::total       975750                       # number of LockedRMWReadReq miss ticks (Tick)
system.cpu0.dcache.LockedRMWReadReq.accesses::cpu00.data          294                       # number of LockedRMWReadReq accesses(hits+misses) (Count)
system.cpu0.dcache.LockedRMWReadReq.accesses::total          294                       # number of LockedRMWReadReq accesses(hits+misses) (Count)
system.cpu0.dcache.LockedRMWReadReq.missRate::cpu00.data     0.146259                       # miss rate for LockedRMWReadReq accesses (Ratio)
system.cpu0.dcache.LockedRMWReadReq.missRate::total     0.146259                       # miss rate for LockedRMWReadReq accesses (Ratio)
system.cpu0.dcache.LockedRMWReadReq.avgMissLatency::cpu00.data 22691.860465                       # average LockedRMWReadReq miss latency ((Tick/Count))
system.cpu0.dcache.LockedRMWReadReq.avgMissLatency::total 22691.860465                       # average LockedRMWReadReq miss latency ((Tick/Count))
system.cpu0.dcache.LockedRMWReadReq.mshrMisses::cpu00.data           43                       # number of LockedRMWReadReq MSHR misses (Count)
system.cpu0.dcache.LockedRMWReadReq.mshrMisses::total           43                       # number of LockedRMWReadReq MSHR misses (Count)
system.cpu0.dcache.LockedRMWReadReq.mshrMissLatency::cpu00.data      2551250                       # number of LockedRMWReadReq MSHR miss ticks (Tick)
system.cpu0.dcache.LockedRMWReadReq.mshrMissLatency::total      2551250                       # number of LockedRMWReadReq MSHR miss ticks (Tick)
system.cpu0.dcache.LockedRMWReadReq.mshrMissRate::cpu00.data     0.146259                       # mshr miss rate for LockedRMWReadReq accesses (Ratio)
system.cpu0.dcache.LockedRMWReadReq.mshrMissRate::total     0.146259                       # mshr miss rate for LockedRMWReadReq accesses (Ratio)
system.cpu0.dcache.LockedRMWReadReq.avgMshrMissLatency::cpu00.data 59331.395349                       # average LockedRMWReadReq mshr miss latency ((Tick/Count))
system.cpu0.dcache.LockedRMWReadReq.avgMshrMissLatency::total 59331.395349                       # average LockedRMWReadReq mshr miss latency ((Tick/Count))
system.cpu0.dcache.LockedRMWWriteReq.hits::cpu00.data          294                       # number of LockedRMWWriteReq hits (Count)
system.cpu0.dcache.LockedRMWWriteReq.hits::total          294                       # number of LockedRMWWriteReq hits (Count)
system.cpu0.dcache.LockedRMWWriteReq.accesses::cpu00.data          294                       # number of LockedRMWWriteReq accesses(hits+misses) (Count)
system.cpu0.dcache.LockedRMWWriteReq.accesses::total          294                       # number of LockedRMWWriteReq accesses(hits+misses) (Count)
system.cpu0.dcache.ReadReq.hits::cpu00.data      4683996                       # number of ReadReq hits (Count)
system.cpu0.dcache.ReadReq.hits::total        4683996                       # number of ReadReq hits (Count)
system.cpu0.dcache.ReadReq.misses::cpu00.data      3163046                       # number of ReadReq misses (Count)
system.cpu0.dcache.ReadReq.misses::total      3163046                       # number of ReadReq misses (Count)
system.cpu0.dcache.ReadReq.missLatency::cpu00.data 158992043750                       # number of ReadReq miss ticks (Tick)
system.cpu0.dcache.ReadReq.missLatency::total 158992043750                       # number of ReadReq miss ticks (Tick)
system.cpu0.dcache.ReadReq.accesses::cpu00.data      7847042                       # number of ReadReq accesses(hits+misses) (Count)
system.cpu0.dcache.ReadReq.accesses::total      7847042                       # number of ReadReq accesses(hits+misses) (Count)
system.cpu0.dcache.ReadReq.missRate::cpu00.data     0.403088                       # miss rate for ReadReq accesses (Ratio)
system.cpu0.dcache.ReadReq.missRate::total     0.403088                       # miss rate for ReadReq accesses (Ratio)
system.cpu0.dcache.ReadReq.avgMissLatency::cpu00.data 50265.485785                       # average ReadReq miss latency ((Tick/Count))
system.cpu0.dcache.ReadReq.avgMissLatency::total 50265.485785                       # average ReadReq miss latency ((Tick/Count))
system.cpu0.dcache.ReadReq.mshrHits::cpu00.data      2588253                       # number of ReadReq MSHR hits (Count)
system.cpu0.dcache.ReadReq.mshrHits::total      2588253                       # number of ReadReq MSHR hits (Count)
system.cpu0.dcache.ReadReq.mshrMisses::cpu00.data       574793                       # number of ReadReq MSHR misses (Count)
system.cpu0.dcache.ReadReq.mshrMisses::total       574793                       # number of ReadReq MSHR misses (Count)
system.cpu0.dcache.ReadReq.mshrMissLatency::cpu00.data  49385995500                       # number of ReadReq MSHR miss ticks (Tick)
system.cpu0.dcache.ReadReq.mshrMissLatency::total  49385995500                       # number of ReadReq MSHR miss ticks (Tick)
system.cpu0.dcache.ReadReq.mshrMissRate::cpu00.data     0.073250                       # mshr miss rate for ReadReq accesses (Ratio)
system.cpu0.dcache.ReadReq.mshrMissRate::total     0.073250                       # mshr miss rate for ReadReq accesses (Ratio)
system.cpu0.dcache.ReadReq.avgMshrMissLatency::cpu00.data 85919.618889                       # average ReadReq mshr miss latency ((Tick/Count))
system.cpu0.dcache.ReadReq.avgMshrMissLatency::total 85919.618889                       # average ReadReq mshr miss latency ((Tick/Count))
system.cpu0.dcache.WriteReq.hits::cpu00.data      1155110                       # number of WriteReq hits (Count)
system.cpu0.dcache.WriteReq.hits::total       1155110                       # number of WriteReq hits (Count)
system.cpu0.dcache.WriteReq.misses::cpu00.data       151517                       # number of WriteReq misses (Count)
system.cpu0.dcache.WriteReq.misses::total       151517                       # number of WriteReq misses (Count)
system.cpu0.dcache.WriteReq.missLatency::cpu00.data  15730490243                       # number of WriteReq miss ticks (Tick)
system.cpu0.dcache.WriteReq.missLatency::total  15730490243                       # number of WriteReq miss ticks (Tick)
system.cpu0.dcache.WriteReq.accesses::cpu00.data      1306627                       # number of WriteReq accesses(hits+misses) (Count)
system.cpu0.dcache.WriteReq.accesses::total      1306627                       # number of WriteReq accesses(hits+misses) (Count)
system.cpu0.dcache.WriteReq.missRate::cpu00.data     0.115960                       # miss rate for WriteReq accesses (Ratio)
system.cpu0.dcache.WriteReq.missRate::total     0.115960                       # miss rate for WriteReq accesses (Ratio)
system.cpu0.dcache.WriteReq.avgMissLatency::cpu00.data 103819.969000                       # average WriteReq miss latency ((Tick/Count))
system.cpu0.dcache.WriteReq.avgMissLatency::total 103819.969000                       # average WriteReq miss latency ((Tick/Count))
system.cpu0.dcache.WriteReq.mshrHits::cpu00.data            8                       # number of WriteReq MSHR hits (Count)
system.cpu0.dcache.WriteReq.mshrHits::total            8                       # number of WriteReq MSHR hits (Count)
system.cpu0.dcache.WriteReq.mshrMisses::cpu00.data       151509                       # number of WriteReq MSHR misses (Count)
system.cpu0.dcache.WriteReq.mshrMisses::total       151509                       # number of WriteReq MSHR misses (Count)
system.cpu0.dcache.WriteReq.mshrMissLatency::cpu00.data  15654284743                       # number of WriteReq MSHR miss ticks (Tick)
system.cpu0.dcache.WriteReq.mshrMissLatency::total  15654284743                       # number of WriteReq MSHR miss ticks (Tick)
system.cpu0.dcache.WriteReq.mshrMissRate::cpu00.data     0.115954                       # mshr miss rate for WriteReq accesses (Ratio)
system.cpu0.dcache.WriteReq.mshrMissRate::total     0.115954                       # mshr miss rate for WriteReq accesses (Ratio)
system.cpu0.dcache.WriteReq.avgMshrMissLatency::cpu00.data 103322.474196                       # average WriteReq mshr miss latency ((Tick/Count))
system.cpu0.dcache.WriteReq.avgMshrMissLatency::total 103322.474196                       # average WriteReq mshr miss latency ((Tick/Count))
system.cpu0.dcache.power_state.pwrStateResidencyTicks::UNDEFINED  28523117500                       # Cumulative time (in ticks) in various power states (Tick)
system.cpu0.dcache.tags.tagsInUse         1021.799027                       # Average ticks per tags in use ((Tick/Count))
system.cpu0.dcache.tags.totalRefs             6565998                       # Total number of references to valid blocks. (Count)
system.cpu0.dcache.tags.sampledRefs            726236                       # Sample count of references to valid blocks. (Count)
system.cpu0.dcache.tags.avgRefs              9.041135                       # Average number of references to valid blocks. ((Count/Count))
system.cpu0.dcache.tags.warmupTick             149000                       # The tick when the warmup percentage was hit. (Tick)
system.cpu0.dcache.tags.occupancies::cpu00.data  1021.799027                       # Average occupied blocks per tick, per requestor ((Count/Tick))
system.cpu0.dcache.tags.avgOccs::cpu00.data     0.997851                       # Average percentage of cache occupancy ((Ratio/Tick))
system.cpu0.dcache.tags.avgOccs::total       0.997851                       # Average percentage of cache occupancy ((Ratio/Tick))
system.cpu0.dcache.tags.occupanciesTaskId::1024         1024                       # Occupied blocks per task id (Count)
system.cpu0.dcache.tags.ageTaskId_1024::0          143                       # Occupied blocks per task id, per block age (Count)
system.cpu0.dcache.tags.ageTaskId_1024::1          880                       # Occupied blocks per task id, per block age (Count)
system.cpu0.dcache.tags.ageTaskId_1024::4            1                       # Occupied blocks per task id, per block age (Count)
system.cpu0.dcache.tags.ratioOccsTaskId::1024            1                       # Ratio of occupied blocks and all blocks, per task id (Ratio)
system.cpu0.dcache.tags.tagAccesses          19034750                       # Number of tag accesses (Count)
system.cpu0.dcache.tags.dataAccesses         19034750                       # Number of data accesses (Count)
system.cpu0.dcache.tags.power_state.pwrStateResidencyTicks::UNDEFINED  28523117500                       # Cumulative time (in ticks) in various power states (Tick)
system.cpu0.decode.idleCycles                 3000291                       # Number of cycles decode is idle (Cycle)
system.cpu0.decode.blockedCycles            104163483                       # Number of cycles decode is blocked (Cycle)
system.cpu0.decode.runCycles                  4495766                       # Number of cycles decode is running (Cycle)
system.cpu0.decode.unblockCycles              2008993                       # Number of cycles decode is unblocking (Cycle)
system.cpu0.decode.squashCycles                 12665                       # Number of cycles decode is squashing (Cycle)
system.cpu0.decode.branchResolved             1697700                       # Number of times decode resolved a branch (Count)
system.cpu0.decode.branchMispred                 1371                       # Number of times decode detected a branch misprediction (Count)
system.cpu0.decode.decodedInsts              47442003                       # Number of instructions handled by decode (Count)
system.cpu0.decode.squashedInsts                 6591                       # Number of squashed instructions handled by decode (Count)
system.cpu0.dtb_walker_cache.blockedCycles::no_mshrs            0                       # number of cycles access was blocked (Cycle)
system.cpu0.dtb_walker_cache.blockedCycles::no_targets            0                       # number of cycles access was blocked (Cycle)
system.cpu0.dtb_walker_cache.blockedCauses::no_mshrs            0                       # number of times access was blocked (Count)
system.cpu0.dtb_walker_cache.blockedCauses::no_targets            0                       # number of times access was blocked (Count)
system.cpu0.dtb_walker_cache.avgBlocked::no_mshrs          nan                       # average number of cycles each access was blocked ((Cycle/Count))
system.cpu0.dtb_walker_cache.avgBlocked::no_targets          nan                       # average number of cycles each access was blocked ((Cycle/Count))
system.cpu0.dtb_walker_cache.replacements            0                       # number of replacements (Count)
system.cpu0.dtb_walker_cache.power_state.pwrStateResidencyTicks::UNDEFINED  28523117500                       # Cumulative time (in ticks) in various power states (Tick)
system.cpu0.dtb_walker_cache.tags.tagsInUse            0                       # Average ticks per tags in use ((Tick/Count))
system.cpu0.dtb_walker_cache.tags.totalRefs            0                       # Total number of references to valid blocks. (Count)
system.cpu0.dtb_walker_cache.tags.sampledRefs            0                       # Sample count of references to valid blocks. (Count)
system.cpu0.dtb_walker_cache.tags.avgRefs          nan                       # Average number of references to valid blocks. ((Count/Count))
system.cpu0.dtb_walker_cache.tags.warmupTick            0                       # The tick when the warmup percentage was hit. (Tick)
system.cpu0.dtb_walker_cache.tags.tagAccesses            0                       # Number of tag accesses (Count)
system.cpu0.dtb_walker_cache.tags.dataAccesses            0                       # Number of data accesses (Count)
system.cpu0.dtb_walker_cache.tags.power_state.pwrStateResidencyTicks::UNDEFINED  28523117500                       # Cumulative time (in ticks) in various power states (Tick)
system.cpu0.fetch.icacheStallCycles           4112586                       # Number of cycles fetch is stalled on an Icache miss (Cycle)
system.cpu0.fetch.insts                      26016705                       # Number of instructions fetch has processed (Count)
system.cpu0.fetch.branches                    4922008                       # Number of branches that fetch encountered (Count)
system.cpu0.fetch.predictedBranches           1727673                       # Number of branches that fetch has predicted taken (Count)
system.cpu0.fetch.cycles                    109541491                       # Number of cycles fetch has run and was not squashing or blocked (Cycle)
system.cpu0.fetch.squashCycles                  28024                       # Number of cycles fetch has spent squashing (Cycle)
system.cpu0.fetch.miscStallCycles                1710                       # Number of cycles fetch has spent waiting on interrupts, or bad addresses, or out of MSHRs (Cycle)
system.cpu0.fetch.pendingTrapStallCycles        11339                       # Number of stall cycles due to pending traps (Cycle)
system.cpu0.fetch.icacheWaitRetryStallCycles           60                       # Number of stall cycles due to full MSHR (Cycle)
system.cpu0.fetch.cacheLines                  3985529                       # Number of cache lines fetched (Count)
system.cpu0.fetch.icacheSquashes                 3400                       # Number of outstanding Icache misses that were squashed (Count)
system.cpu0.fetch.nisnDist::samples         113681198                       # Number of instructions fetched each cycle (Total) (Count)
system.cpu0.fetch.nisnDist::mean             0.418222                       # Number of instructions fetched each cycle (Total) (Count)
system.cpu0.fetch.nisnDist::stdev            1.684835                       # Number of instructions fetched each cycle (Total) (Count)
system.cpu0.fetch.nisnDist::underflows              0      0.00%      0.00% # Number of instructions fetched each cycle (Total) (Count)
system.cpu0.fetch.nisnDist::0               105921121     93.17%     93.17% # Number of instructions fetched each cycle (Total) (Count)
system.cpu0.fetch.nisnDist::1                  619376      0.54%     93.72% # Number of instructions fetched each cycle (Total) (Count)
system.cpu0.fetch.nisnDist::2                  276449      0.24%     93.96% # Number of instructions fetched each cycle (Total) (Count)
system.cpu0.fetch.nisnDist::3                 1321908      1.16%     95.12% # Number of instructions fetched each cycle (Total) (Count)
system.cpu0.fetch.nisnDist::4                  122382      0.11%     95.23% # Number of instructions fetched each cycle (Total) (Count)
system.cpu0.fetch.nisnDist::5                  226742      0.20%     95.43% # Number of instructions fetched each cycle (Total) (Count)
system.cpu0.fetch.nisnDist::6                  208949      0.18%     95.62% # Number of instructions fetched each cycle (Total) (Count)
system.cpu0.fetch.nisnDist::7                  345164      0.30%     95.92% # Number of instructions fetched each cycle (Total) (Count)
system.cpu0.fetch.nisnDist::8                 4639107      4.08%    100.00% # Number of instructions fetched each cycle (Total) (Count)
system.cpu0.fetch.nisnDist::overflows               0      0.00%    100.00% # Number of instructions fetched each cycle (Total) (Count)
system.cpu0.fetch.nisnDist::min_value               0                       # Number of instructions fetched each cycle (Total) (Count)
system.cpu0.fetch.nisnDist::max_value               8                       # Number of instructions fetched each cycle (Total) (Count)
system.cpu0.fetch.nisnDist::total           113681198                       # Number of instructions fetched each cycle (Total) (Count)
system.cpu0.fetch.branchRate                 0.043141                       # Number of branch fetches per cycle (Ratio)
system.cpu0.fetch.rate                       0.228032                       # Number of inst fetches per cycle ((Count/Cycle))
system.cpu0.icache.demandHits::cpu00.inst      3982052                       # number of demand (read+write) hits (Count)
system.cpu0.icache.demandHits::total          3982052                       # number of demand (read+write) hits (Count)
system.cpu0.icache.overallHits::cpu00.inst      3982052                       # number of overall hits (Count)
system.cpu0.icache.overallHits::total         3982052                       # number of overall hits (Count)
system.cpu0.icache.demandMisses::cpu00.inst         3476                       # number of demand (read+write) misses (Count)
system.cpu0.icache.demandMisses::total           3476                       # number of demand (read+write) misses (Count)
system.cpu0.icache.overallMisses::cpu00.inst         3476                       # number of overall misses (Count)
system.cpu0.icache.overallMisses::total          3476                       # number of overall misses (Count)
system.cpu0.icache.demandMissLatency::cpu00.inst    227763999                       # number of demand (read+write) miss ticks (Tick)
system.cpu0.icache.demandMissLatency::total    227763999                       # number of demand (read+write) miss ticks (Tick)
system.cpu0.icache.overallMissLatency::cpu00.inst    227763999                       # number of overall miss ticks (Tick)
system.cpu0.icache.overallMissLatency::total    227763999                       # number of overall miss ticks (Tick)
system.cpu0.icache.demandAccesses::cpu00.inst      3985528                       # number of demand (read+write) accesses (Count)
system.cpu0.icache.demandAccesses::total      3985528                       # number of demand (read+write) accesses (Count)
system.cpu0.icache.overallAccesses::cpu00.inst      3985528                       # number of overall (read+write) accesses (Count)
system.cpu0.icache.overallAccesses::total      3985528                       # number of overall (read+write) accesses (Count)
system.cpu0.icache.demandMissRate::cpu00.inst     0.000872                       # miss rate for demand accesses (Ratio)
system.cpu0.icache.demandMissRate::total     0.000872                       # miss rate for demand accesses (Ratio)
system.cpu0.icache.overallMissRate::cpu00.inst     0.000872                       # miss rate for overall accesses (Ratio)
system.cpu0.icache.overallMissRate::total     0.000872                       # miss rate for overall accesses (Ratio)
system.cpu0.icache.demandAvgMissLatency::cpu00.inst 65524.740794                       # average overall miss latency in ticks ((Tick/Count))
system.cpu0.icache.demandAvgMissLatency::total 65524.740794                       # average overall miss latency in ticks ((Tick/Count))
system.cpu0.icache.overallAvgMissLatency::cpu00.inst 65524.740794                       # average overall miss latency ((Tick/Count))
system.cpu0.icache.overallAvgMissLatency::total 65524.740794                       # average overall miss latency ((Tick/Count))
system.cpu0.icache.blockedCycles::no_mshrs         1912                       # number of cycles access was blocked (Cycle)
system.cpu0.icache.blockedCycles::no_targets            0                       # number of cycles access was blocked (Cycle)
system.cpu0.icache.blockedCauses::no_mshrs           14                       # number of times access was blocked (Count)
system.cpu0.icache.blockedCauses::no_targets            0                       # number of times access was blocked (Count)
system.cpu0.icache.avgBlocked::no_mshrs    136.571429                       # average number of cycles each access was blocked ((Cycle/Count))
system.cpu0.icache.avgBlocked::no_targets          nan                       # average number of cycles each access was blocked ((Cycle/Count))
system.cpu0.icache.writebacks::writebacks         2229                       # number of writebacks (Count)
system.cpu0.icache.writebacks::total             2229                       # number of writebacks (Count)
system.cpu0.icache.demandMshrHits::cpu00.inst          733                       # number of demand (read+write) MSHR hits (Count)
system.cpu0.icache.demandMshrHits::total          733                       # number of demand (read+write) MSHR hits (Count)
system.cpu0.icache.overallMshrHits::cpu00.inst          733                       # number of overall MSHR hits (Count)
system.cpu0.icache.overallMshrHits::total          733                       # number of overall MSHR hits (Count)
system.cpu0.icache.demandMshrMisses::cpu00.inst         2743                       # number of demand (read+write) MSHR misses (Count)
system.cpu0.icache.demandMshrMisses::total         2743                       # number of demand (read+write) MSHR misses (Count)
system.cpu0.icache.overallMshrMisses::cpu00.inst         2743                       # number of overall MSHR misses (Count)
system.cpu0.icache.overallMshrMisses::total         2743                       # number of overall MSHR misses (Count)
system.cpu0.icache.demandMshrMissLatency::cpu00.inst    185080999                       # number of demand (read+write) MSHR miss ticks (Tick)
system.cpu0.icache.demandMshrMissLatency::total    185080999                       # number of demand (read+write) MSHR miss ticks (Tick)
system.cpu0.icache.overallMshrMissLatency::cpu00.inst    185080999                       # number of overall MSHR miss ticks (Tick)
system.cpu0.icache.overallMshrMissLatency::total    185080999                       # number of overall MSHR miss ticks (Tick)
system.cpu0.icache.demandMshrMissRate::cpu00.inst     0.000688                       # mshr miss ratio for demand accesses (Ratio)
system.cpu0.icache.demandMshrMissRate::total     0.000688                       # mshr miss ratio for demand accesses (Ratio)
system.cpu0.icache.overallMshrMissRate::cpu00.inst     0.000688                       # mshr miss ratio for overall accesses (Ratio)
system.cpu0.icache.overallMshrMissRate::total     0.000688                       # mshr miss ratio for overall accesses (Ratio)
system.cpu0.icache.demandAvgMshrMissLatency::cpu00.inst 67473.933285                       # average overall mshr miss latency ((Tick/Count))
system.cpu0.icache.demandAvgMshrMissLatency::total 67473.933285                       # average overall mshr miss latency ((Tick/Count))
system.cpu0.icache.overallAvgMshrMissLatency::cpu00.inst 67473.933285                       # average overall mshr miss latency ((Tick/Count))
system.cpu0.icache.overallAvgMshrMissLatency::total 67473.933285                       # average overall mshr miss latency ((Tick/Count))
system.cpu0.icache.replacements                  2229                       # number of replacements (Count)
system.cpu0.icache.ReadReq.hits::cpu00.inst      3982052                       # number of ReadReq hits (Count)
system.cpu0.icache.ReadReq.hits::total        3982052                       # number of ReadReq hits (Count)
system.cpu0.icache.ReadReq.misses::cpu00.inst         3476                       # number of ReadReq misses (Count)
system.cpu0.icache.ReadReq.misses::total         3476                       # number of ReadReq misses (Count)
system.cpu0.icache.ReadReq.missLatency::cpu00.inst    227763999                       # number of ReadReq miss ticks (Tick)
system.cpu0.icache.ReadReq.missLatency::total    227763999                       # number of ReadReq miss ticks (Tick)
system.cpu0.icache.ReadReq.accesses::cpu00.inst      3985528                       # number of ReadReq accesses(hits+misses) (Count)
system.cpu0.icache.ReadReq.accesses::total      3985528                       # number of ReadReq accesses(hits+misses) (Count)
system.cpu0.icache.ReadReq.missRate::cpu00.inst     0.000872                       # miss rate for ReadReq accesses (Ratio)
system.cpu0.icache.ReadReq.missRate::total     0.000872                       # miss rate for ReadReq accesses (Ratio)
system.cpu0.icache.ReadReq.avgMissLatency::cpu00.inst 65524.740794                       # average ReadReq miss latency ((Tick/Count))
system.cpu0.icache.ReadReq.avgMissLatency::total 65524.740794                       # average ReadReq miss latency ((Tick/Count))
system.cpu0.icache.ReadReq.mshrHits::cpu00.inst          733                       # number of ReadReq MSHR hits (Count)
system.cpu0.icache.ReadReq.mshrHits::total          733                       # number of ReadReq MSHR hits (Count)
system.cpu0.icache.ReadReq.mshrMisses::cpu00.inst         2743                       # number of ReadReq MSHR misses (Count)
system.cpu0.icache.ReadReq.mshrMisses::total         2743                       # number of ReadReq MSHR misses (Count)
system.cpu0.icache.ReadReq.mshrMissLatency::cpu00.inst    185080999                       # number of ReadReq MSHR miss ticks (Tick)
system.cpu0.icache.ReadReq.mshrMissLatency::total    185080999                       # number of ReadReq MSHR miss ticks (Tick)
system.cpu0.icache.ReadReq.mshrMissRate::cpu00.inst     0.000688                       # mshr miss rate for ReadReq accesses (Ratio)
system.cpu0.icache.ReadReq.mshrMissRate::total     0.000688                       # mshr miss rate for ReadReq accesses (Ratio)
system.cpu0.icache.ReadReq.avgMshrMissLatency::cpu00.inst 67473.933285                       # average ReadReq mshr miss latency ((Tick/Count))
system.cpu0.icache.ReadReq.avgMshrMissLatency::total 67473.933285                       # average ReadReq mshr miss latency ((Tick/Count))
system.cpu0.icache.power_state.pwrStateResidencyTicks::UNDEFINED  28523117500                       # Cumulative time (in ticks) in various power states (Tick)
system.cpu0.icache.tags.tagsInUse          511.391518                       # Average ticks per tags in use ((Tick/Count))
system.cpu0.icache.tags.totalRefs             3984794                       # Total number of references to valid blocks. (Count)
system.cpu0.icache.tags.sampledRefs              2742                       # Sample count of references to valid blocks. (Count)
system.cpu0.icache.tags.avgRefs           1453.243618                       # Average number of references to valid blocks. ((Count/Count))
system.cpu0.icache.tags.warmupTick              80000                       # The tick when the warmup percentage was hit. (Tick)
system.cpu0.icache.tags.occupancies::cpu00.inst   511.391518                       # Average occupied blocks per tick, per requestor ((Count/Tick))
system.cpu0.icache.tags.avgOccs::cpu00.inst     0.998812                       # Average percentage of cache occupancy ((Ratio/Tick))
system.cpu0.icache.tags.avgOccs::total       0.998812                       # Average percentage of cache occupancy ((Ratio/Tick))
system.cpu0.icache.tags.occupanciesTaskId::1024          512                       # Occupied blocks per task id (Count)
system.cpu0.icache.tags.ageTaskId_1024::0          113                       # Occupied blocks per task id, per block age (Count)
system.cpu0.icache.tags.ageTaskId_1024::1           72                       # Occupied blocks per task id, per block age (Count)
system.cpu0.icache.tags.ageTaskId_1024::4          327                       # Occupied blocks per task id, per block age (Count)
system.cpu0.icache.tags.ratioOccsTaskId::1024            1                       # Ratio of occupied blocks and all blocks, per task id (Ratio)
system.cpu0.icache.tags.tagAccesses           7973798                       # Number of tag accesses (Count)
system.cpu0.icache.tags.dataAccesses          7973798                       # Number of data accesses (Count)
system.cpu0.icache.tags.power_state.pwrStateResidencyTicks::UNDEFINED  28523117500                       # Cumulative time (in ticks) in various power states (Tick)
system.cpu0.iew.idleCycles                          0                       # Number of cycles IEW is idle (Cycle)
system.cpu0.iew.squashCycles                    12665                       # Number of cycles IEW is squashing (Cycle)
system.cpu0.iew.blockCycles                  29000758                       # Number of cycles IEW is blocking (Cycle)
system.cpu0.iew.unblockCycles                12760466                       # Number of cycles IEW is unblocking (Cycle)
system.cpu0.iew.dispatchedInsts              47346778                       # Number of instructions dispatched to IQ (Count)
system.cpu0.iew.dispSquashedInsts                1108                       # Number of squashed instructions skipped by dispatch (Count)
system.cpu0.iew.dispLoadInsts                 7876406                       # Number of dispatched load instructions (Count)
system.cpu0.iew.dispStoreInsts                1329691                       # Number of dispatched store instructions (Count)
system.cpu0.iew.dispNonSpecInsts                  629                       # Number of dispatched non-speculative instructions (Count)
system.cpu0.iew.iqFullEvents                   252573                       # Number of times the IQ has become full, causing a stall (Count)
system.cpu0.iew.lsqFullEvents                12497919                       # Number of times the LSQ has become full, causing a stall (Count)
system.cpu0.iew.memOrderViolationEvents           292                       # Number of memory order violations (Count)
system.cpu0.iew.predictedTakenIncorrect          2773                       # Number of branches that were predicted taken incorrectly (Count)
system.cpu0.iew.predictedNotTakenIncorrect         8036                       # Number of branches that were predicted not taken incorrectly (Count)
system.cpu0.iew.branchMispredicts               10809                       # Number of branch mispredicts detected at execute (Count)
system.cpu0.iew.instsToCommit                47176921                       # Cumulative count of insts sent to commit (Count)
system.cpu0.iew.writebackCount               47167951                       # Cumulative count of insts written-back (Count)
system.cpu0.iew.producerInst                 34168272                       # Number of instructions producing a value (Count)
system.cpu0.iew.consumerInst                 56348523                       # Number of instructions consuming a value (Count)
system.cpu0.iew.wbRate                       0.413419                       # Insts written-back per cycle ((Count/Cycle))
system.cpu0.iew.wbFanout                     0.606374                       # Average fanout of values written-back ((Count/Count))
system.cpu0.interrupts.clk_domain.clock          4000                       # Clock period in ticks (Tick)
system.cpu0.itb_walker_cache.blockedCycles::no_mshrs            0                       # number of cycles access was blocked (Cycle)
system.cpu0.itb_walker_cache.blockedCycles::no_targets            0                       # number of cycles access was blocked (Cycle)
system.cpu0.itb_walker_cache.blockedCauses::no_mshrs            0                       # number of times access was blocked (Count)
system.cpu0.itb_walker_cache.blockedCauses::no_targets            0                       # number of times access was blocked (Count)
system.cpu0.itb_walker_cache.avgBlocked::no_mshrs          nan                       # average number of cycles each access was blocked ((Cycle/Count))
system.cpu0.itb_walker_cache.avgBlocked::no_targets          nan                       # average number of cycles each access was blocked ((Cycle/Count))
system.cpu0.itb_walker_cache.replacements            0                       # number of replacements (Count)
system.cpu0.itb_walker_cache.power_state.pwrStateResidencyTicks::UNDEFINED  28523117500                       # Cumulative time (in ticks) in various power states (Tick)
system.cpu0.itb_walker_cache.tags.tagsInUse            0                       # Average ticks per tags in use ((Tick/Count))
[...]
system.membus.pktSize_system.cpu14.dcache.mem_side_port::system.mem_ctrls3.port      7999936                       # Cumulative packet size per connected requestor and responder (Byte)
system.membus.pktSize_system.cpu14.dcache.mem_side_port::total     32006592                       # Cumulative packet size per connected requestor and responder (Byte)
system.membus.pktSize_system.cpu15.icache.mem_side_port::system.mem_ctrls0.port         1024                       # Cumulative packet size per connected requestor and responder (Byte)
system.membus.pktSize_system.cpu15.icache.mem_side_port::system.mem_ctrls1.port          960                       # Cumulative packet size per connected requestor and responder (Byte)
system.membus.pktSize_system.cpu15.icache.mem_side_port::system.mem_ctrls2.port         1152                       # Cumulative packet size per connected requestor and responder (Byte)
system.membus.pktSize_system.cpu15.icache.mem_side_port::system.mem_ctrls3.port          896                       # Cumulative packet size per connected requestor and responder (Byte)
system.membus.pktSize_system.cpu15.icache.mem_side_port::total         4032                       # Cumulative packet size per connected requestor and responder (Byte)
system.membus.pktSize_system.cpu15.dcache.mem_side_port::system.mem_ctrls0.port      8000192                       # Cumulative packet size per connected requestor and responder (Byte)
system.membus.pktSize_system.cpu15.dcache.mem_side_port::system.mem_ctrls1.port      8000000                       # Cumulative packet size per connected requestor and responder (Byte)
system.membus.pktSize_system.cpu15.dcache.mem_side_port::system.mem_ctrls2.port      8005120                       # Cumulative packet size per connected requestor and responder (Byte)
system.membus.pktSize_system.cpu15.dcache.mem_side_port::system.mem_ctrls3.port      8001152                       # Cumulative packet size per connected requestor and responder (Byte)
system.membus.pktSize_system.cpu15.dcache.mem_side_port::total     32006464                       # Cumulative packet size per connected requestor and responder (Byte)
system.membus.pktSize::total                537068160                       # Cumulative packet size per connected requestor and responder (Byte)
system.membus.snoops                             4918                       # Total snoops (Count)
system.membus.snoopTraffic                     299584                       # Total snoop traffic (Byte)
system.membus.snoopFanout::samples            5892592                       # Request fanout histogram (Count)
system.membus.snoopFanout::mean              0.009586                       # Request fanout histogram (Count)
system.membus.snoopFanout::stdev             0.278712                       # Request fanout histogram (Count)
system.membus.snoopFanout::underflows               0      0.00%      0.00% # Request fanout histogram (Count)
system.membus.snoopFanout::0                  5870617     99.63%     99.63% # Request fanout histogram (Count)
system.membus.snoopFanout::1                    17551      0.30%     99.92% # Request fanout histogram (Count)
system.membus.snoopFanout::2                      472      0.01%     99.93% # Request fanout histogram (Count)
system.membus.snoopFanout::3                      400      0.01%     99.94% # Request fanout histogram (Count)
system.membus.snoopFanout::4                      287      0.00%     99.94% # Request fanout histogram (Count)
system.membus.snoopFanout::5                      293      0.00%     99.95% # Request fanout histogram (Count)
system.membus.snoopFanout::6                      247      0.00%     99.95% # Request fanout histogram (Count)
system.membus.snoopFanout::7                      230      0.00%     99.96% # Request fanout histogram (Count)
system.membus.snoopFanout::8                      227      0.00%     99.96% # Request fanout histogram (Count)
system.membus.snoopFanout::9                      235      0.00%     99.97% # Request fanout histogram (Count)
system.membus.snoopFanout::10                     230      0.00%     99.97% # Request fanout histogram (Count)
system.membus.snoopFanout::11                     221      0.00%     99.97% # Request fanout histogram (Count)
system.membus.snoopFanout::12                     220      0.00%     99.98% # Request fanout histogram (Count)
system.membus.snoopFanout::13                     220      0.00%     99.98% # Request fanout histogram (Count)
system.membus.snoopFanout::14                     222      0.00%     99.98% # Request fanout histogram (Count)
system.membus.snoopFanout::15                     911      0.02%    100.00% # Request fanout histogram (Count)
system.membus.snoopFanout::16                       6      0.00%    100.00% # Request fanout histogram (Count)
system.membus.snoopFanout::17                       1      0.00%    100.00% # Request fanout histogram (Count)
system.membus.snoopFanout::18                       1      0.00%    100.00% # Request fanout histogram (Count)
system.membus.snoopFanout::19                       1      0.00%    100.00% # Request fanout histogram (Count)
system.membus.snoopFanout::20                       0      0.00%    100.00% # Request fanout histogram (Count)
system.membus.snoopFanout::21                       0      0.00%    100.00% # Request fanout histogram (Count)
system.membus.snoopFanout::22                       0      0.00%    100.00% # Request fanout histogram (Count)
system.membus.snoopFanout::23                       0      0.00%    100.00% # Request fanout histogram (Count)
system.membus.snoopFanout::24                       0      0.00%    100.00% # Request fanout histogram (Count)
system.membus.snoopFanout::25                       0      0.00%    100.00% # Request fanout histogram (Count)
system.membus.snoopFanout::26                       0      0.00%    100.00% # Request fanout histogram (Count)
system.membus.snoopFanout::27                       0      0.00%    100.00% # Request fanout histogram (Count)
system.membus.snoopFanout::28                       0      0.00%    100.00% # Request fanout histogram (Count)
system.membus.snoopFanout::29                       0      0.00%    100.00% # Request fanout histogram (Count)
system.membus.snoopFanout::30                       0      0.00%    100.00% # Request fanout histogram (Count)
system.membus.snoopFanout::31                       0      0.00%    100.00% # Request fanout histogram (Count)
system.membus.snoopFanout::32                       0      0.00%    100.00% # Request fanout histogram (Count)
system.membus.snoopFanout::33                       0      0.00%    100.00% # Request fanout histogram (Count)
system.membus.snoopFanout::34                       0      0.00%    100.00% # Request fanout histogram (Count)
system.membus.snoopFanout::35                       0      0.00%    100.00% # Request fanout histogram (Count)
system.membus.snoopFanout::36                       0      0.00%    100.00% # Request fanout histogram (Count)
system.membus.snoopFanout::37                       0      0.00%    100.00% # Request fanout histogram (Count)
system.membus.snoopFanout::38                       0      0.00%    100.00% # Request fanout histogram (Count)
system.membus.snoopFanout::39                       0      0.00%    100.00% # Request fanout histogram (Count)
system.membus.snoopFanout::40                       0      0.00%    100.00% # Request fanout histogram (Count)
system.membus.snoopFanout::41                       0      0.00%    100.00% # Request fanout histogram (Count)
system.membus.snoopFanout::42                       0      0.00%    100.00% # Request fanout histogram (Count)
system.membus.snoopFanout::43                       0      0.00%    100.00% # Request fanout histogram (Count)
system.membus.snoopFanout::44                       0      0.00%    100.00% # Request fanout histogram (Count)
system.membus.snoopFanout::45                       0      0.00%    100.00% # Request fanout histogram (Count)
system.membus.snoopFanout::46                       0      0.00%    100.00% # Request fanout histogram (Count)
system.membus.snoopFanout::47                       0      0.00%    100.00% # Request fanout histogram (Count)
system.membus.snoopFanout::48                       0      0.00%    100.00% # Request fanout histogram (Count)
system.membus.snoopFanout::49                       0      0.00%    100.00% # Request fanout histogram (Count)
system.membus.snoopFanout::50                       0      0.00%    100.00% # Request fanout histogram (Count)
system.membus.snoopFanout::51                       0      0.00%    100.00% # Request fanout histogram (Count)
system.membus.snoopFanout::52                       0      0.00%    100.00% # Request fanout histogram (Count)
system.membus.snoopFanout::53                       0      0.00%    100.00% # Request fanout histogram (Count)
system.membus.snoopFanout::54                       0      0.00%    100.00% # Request fanout histogram (Count)
system.membus.snoopFanout::55                       0      0.00%    100.00% # Request fanout histogram (Count)
system.membus.snoopFanout::56                       0      0.00%    100.00% # Request fanout histogram (Count)
system.membus.snoopFanout::57                       0      0.00%    100.00% # Request fanout histogram (Count)
system.membus.snoopFanout::58                       0      0.00%    100.00% # Request fanout histogram (Count)
system.membus.snoopFanout::59                       0      0.00%    100.00% # Request fanout histogram (Count)
system.membus.snoopFanout::60                       0      0.00%    100.00% # Request fanout histogram (Count)
system.membus.snoopFanout::61                       0      0.00%    100.00% # Request fanout histogram (Count)
system.membus.snoopFanout::62                       0      0.00%    100.00% # Request fanout histogram (Count)
system.membus.snoopFanout::63                       0      0.00%    100.00% # Request fanout histogram (Count)
system.membus.snoopFanout::64                       0      0.00%    100.00% # Request fanout histogram (Count)
system.membus.snoopFanout::overflows                0      0.00%    100.00% # Request fanout histogram (Count)
system.membus.snoopFanout::min_value                0                       # Request fanout histogram (Count)
system.membus.snoopFanout::max_value               19                       # Request fanout histogram (Count)
system.membus.snoopFanout::total              5892592                       # Request fanout histogram (Count)
system.membus.power_state.pwrStateResidencyTicks::UNDEFINED  28523117500                       # Cumulative time (in ticks) in various power states (Tick)
system.membus.reqLayer32.occupancy         6252982251                       # Layer occupancy (ticks) (Tick)
system.membus.reqLayer32.utilization              0.2                       # Layer utilization (Ratio)
system.membus.reqLayer33.occupancy         6253109461                       # Layer occupancy (ticks) (Tick)
system.membus.reqLayer33.utilization              0.2                       # Layer utilization (Ratio)
system.membus.reqLayer34.occupancy         6257338434                       # Layer occupancy (ticks) (Tick)
system.membus.reqLayer34.utilization              0.2                       # Layer utilization (Ratio)
system.membus.reqLayer35.occupancy         6257593269                       # Layer occupancy (ticks) (Tick)
system.membus.reqLayer35.utilization              0.2                       # Layer utilization (Ratio)
system.membus.respLayer1.occupancy           13818995                       # Layer occupancy (ticks) (Tick)
system.membus.respLayer1.utilization              0.0                       # Layer utilization (Ratio)
system.membus.respLayer11.occupancy            670247                       # Layer occupancy (ticks) (Tick)
system.membus.respLayer11.utilization             0.0                       # Layer utilization (Ratio)
system.membus.respLayer12.occupancy        1780805166                       # Layer occupancy (ticks) (Tick)
system.membus.respLayer12.utilization             0.1                       # Layer utilization (Ratio)
system.membus.respLayer16.occupancy            633748                       # Layer occupancy (ticks) (Tick)
system.membus.respLayer16.utilization             0.0                       # Layer utilization (Ratio)
system.membus.respLayer17.occupancy        1781528437                       # Layer occupancy (ticks) (Tick)
system.membus.respLayer17.utilization             0.1                       # Layer utilization (Ratio)
system.membus.respLayer2.occupancy         3695170879                       # Layer occupancy (ticks) (Tick)
system.membus.respLayer2.utilization              0.1                       # Layer utilization (Ratio)
system.membus.respLayer21.occupancy            337499                       # Layer occupancy (ticks) (Tick)
system.membus.respLayer21.utilization             0.0                       # Layer utilization (Ratio)
system.membus.respLayer22.occupancy        1780816085                       # Layer occupancy (ticks) (Tick)
system.membus.respLayer22.utilization             0.1                       # Layer utilization (Ratio)
system.membus.respLayer26.occupancy            341999                       # Layer occupancy (ticks) (Tick)
system.membus.respLayer26.utilization             0.0                       # Layer utilization (Ratio)
system.membus.respLayer27.occupancy        1780387342                       # Layer occupancy (ticks) (Tick)
system.membus.respLayer27.utilization             0.1                       # Layer utilization (Ratio)
system.membus.respLayer31.occupancy            350500                       # Layer occupancy (ticks) (Tick)
system.membus.respLayer31.utilization             0.0                       # Layer utilization (Ratio)
system.membus.respLayer32.occupancy        1780851849                       # Layer occupancy (ticks) (Tick)
system.membus.respLayer32.utilization             0.1                       # Layer utilization (Ratio)
system.membus.respLayer36.occupancy            339500                       # Layer occupancy (ticks) (Tick)
system.membus.respLayer36.utilization             0.0                       # Layer utilization (Ratio)
system.membus.respLayer37.occupancy        1782000566                       # Layer occupancy (ticks) (Tick)
system.membus.respLayer37.utilization             0.1                       # Layer utilization (Ratio)
system.membus.respLayer41.occupancy            323750                       # Layer occupancy (ticks) (Tick)
system.membus.respLayer41.utilization             0.0                       # Layer utilization (Ratio)
system.membus.respLayer42.occupancy        1781601527                       # Layer occupancy (ticks) (Tick)
system.membus.respLayer42.utilization             0.1                       # Layer utilization (Ratio)
system.membus.respLayer46.occupancy            323250                       # Layer occupancy (ticks) (Tick)
system.membus.respLayer46.utilization             0.0                       # Layer utilization (Ratio)
system.membus.respLayer47.occupancy        1780185930                       # Layer occupancy (ticks) (Tick)
system.membus.respLayer47.utilization             0.1                       # Layer utilization (Ratio)
system.membus.respLayer51.occupancy            360250                       # Layer occupancy (ticks) (Tick)
system.membus.respLayer51.utilization             0.0                       # Layer utilization (Ratio)
system.membus.respLayer52.occupancy        1780919602                       # Layer occupancy (ticks) (Tick)
system.membus.respLayer52.utilization             0.1                       # Layer utilization (Ratio)
system.membus.respLayer56.occupancy            339750                       # Layer occupancy (ticks) (Tick)
system.membus.respLayer56.utilization             0.0                       # Layer utilization (Ratio)
system.membus.respLayer57.occupancy        1782288562                       # Layer occupancy (ticks) (Tick)
system.membus.respLayer57.utilization             0.1                       # Layer utilization (Ratio)
system.membus.respLayer6.occupancy             702249                       # Layer occupancy (ticks) (Tick)
system.membus.respLayer6.utilization              0.0                       # Layer utilization (Ratio)
system.membus.respLayer61.occupancy            337250                       # Layer occupancy (ticks) (Tick)
system.membus.respLayer61.utilization             0.0                       # Layer utilization (Ratio)
system.membus.respLayer62.occupancy        1781285981                       # Layer occupancy (ticks) (Tick)
system.membus.respLayer62.utilization             0.1                       # Layer utilization (Ratio)
system.membus.respLayer66.occupancy            340250                       # Layer occupancy (ticks) (Tick)
system.membus.respLayer66.utilization             0.0                       # Layer utilization (Ratio)
system.membus.respLayer67.occupancy        1780788042                       # Layer occupancy (ticks) (Tick)
system.membus.respLayer67.utilization             0.1                       # Layer utilization (Ratio)
system.membus.respLayer7.occupancy         1781978773                       # Layer occupancy (ticks) (Tick)
system.membus.respLayer7.utilization              0.1                       # Layer utilization (Ratio)
system.membus.respLayer71.occupancy            324750                       # Layer occupancy (ticks) (Tick)
system.membus.respLayer71.utilization             0.0                       # Layer utilization (Ratio)
system.membus.respLayer72.occupancy        1780986906                       # Layer occupancy (ticks) (Tick)
system.membus.respLayer72.utilization             0.1                       # Layer utilization (Ratio)
system.membus.respLayer76.occupancy            340000                       # Layer occupancy (ticks) (Tick)
system.membus.respLayer76.utilization             0.0                       # Layer utilization (Ratio)
system.membus.respLayer77.occupancy        1782437050                       # Layer occupancy (ticks) (Tick)
system.membus.respLayer77.utilization             0.1                       # Layer utilization (Ratio)
system.membus.snoop_filter.totRequests       11765905                       # Total number of requests made to the snoop filter. (Count)
system.membus.snoop_filter.hitSingleRequests      5873273                       # Number of requests hitting in the snoop filter with a single holder of the requested data. (Count)
system.membus.snoop_filter.hitMultiRequests        22465                       # Number of requests hitting in the snoop filter with multiple (>1) holders of the requested data. (Count)
system.membus.snoop_filter.totSnoops                0                       # Total number of snoops made to the snoop filter. (Count)
system.membus.snoop_filter.hitSingleSnoops            0                       # Number of snoops hitting in the snoop filter with a single holder of the requested data. (Count)
system.membus.snoop_filter.hitMultiSnoops            0                       # Number of snoops hitting in the snoop filter with multiple (>1) holders of the requested data. (Count)
system.voltage_domain.voltage                       1                       # Voltage in Volts (Volt)
system.workload.inst.arm                            0                       # number of arm instructions executed (Count)
system.workload.inst.quiesce                        0                       # number of quiesce instructions executed (Count)

---------- End Simulation Statistics   ----------
