
---------- Begin Simulation Statistics ----------
simSeconds                                   0.053202                       # Number of seconds simulated (Second)
simTicks                                  53202035750                       # Number of ticks simulated (Tick)
finalTick                                 53202035750                       # Number of ticks from beginning of simulation (restored from checkpoints and never reset) (Tick)
simFreq                                  1000000000000                       # The number of ticks per simulated second ((Tick/Second))
hostSeconds                                   2414.07                       # Real time elapsed on the host (Second)
hostTickRate                                 22038359                       # The number of ticks simulated per host second (ticks/s) ((Tick/Second))
hostMemory                                    7917780                       # Number of bytes of host memory used (Byte)
simInsts                                    123886085                       # Number of instructions simulated (Count)
simOps                                      221299898                       # Number of ops (including micro ops) simulated (Count)
hostInstRate                                    51318                       # Simulator instruction rate (inst/s) ((Count/Second))
hostOpRate                                      91671                       # Simulator op (including micro ops) rate (op/s) ((Count/Second))
system.clk_domain.clock                          1000                       # Clock period in ticks (Tick)
system.cpu0.numCycles                       212808144                       # Number of cpu cycles simulated (Cycle)
system.cpu0.numWorkItemsStarted                     0                       # Number of work items this cpu started (Count)
system.cpu0.numWorkItemsCompleted                   0                       # Number of work items this cpu completed (Count)
system.cpu0.instsAdded                       77301667                       # Number of instructions added to the IQ (excludes non-spec) (Count)
system.cpu0.nonSpecInstsAdded                    1329                       # Number of non-speculative instructions added to the IQ (Count)
system.cpu0.instsIssued                      77352173                       # Number of instructions issued (Count)
system.cpu0.squashedInstsIssued                  2216                       # Number of squashed instructions issued (Count)
system.cpu0.squashedInstsExamined            24492030                       # Number of squashed instructions iterated over during squash; mainly for profiling (Count)
system.cpu0.squashedOperandsExamined           750442                       # Number of squashed operands that are examined and possibly removed from graph (Count)
system.cpu0.squashedNonSpecRemoved                425                       # Number of squashed non-spec instructions that were removed (Count)
system.cpu0.numIssuedDist::samples          212393693                       # Number of insts issued each cycle (Count)
system.cpu0.numIssuedDist::mean              0.364192                       # Number of insts issued each cycle (Count)
system.cpu0.numIssuedDist::stdev             1.305897                       # Number of insts issued each cycle (Count)
system.cpu0.numIssuedDist::underflows               0      0.00%      0.00% # Number of insts issued each cycle (Count)
system.cpu0.numIssuedDist::0                190585225     89.73%     89.73% # Number of insts issued each cycle (Count)
system.cpu0.numIssuedDist::1                  5564424      2.62%     92.35% # Number of insts issued each cycle (Count)
system.cpu0.numIssuedDist::2                  4167202      1.96%     94.31% # Number of insts issued each cycle (Count)
system.cpu0.numIssuedDist::3                  1973703      0.93%     95.24% # Number of insts issued each cycle (Count)
system.cpu0.numIssuedDist::4                  3033107      1.43%     96.67% # Number of insts issued each cycle (Count)
system.cpu0.numIssuedDist::5                  2341271      1.10%     97.77% # Number of insts issued each cycle (Count)
system.cpu0.numIssuedDist::6                  1365589      0.64%     98.42% # Number of insts issued each cycle (Count)
system.cpu0.numIssuedDist::7                  1405457      0.66%     99.08% # Number of insts issued each cycle (Count)
system.cpu0.numIssuedDist::8                  1957715      0.92%    100.00% # Number of insts issued each cycle (Count)
system.cpu0.numIssuedDist::overflows                0      0.00%    100.00% # Number of insts issued each cycle (Count)
system.cpu0.numIssuedDist::min_value                0                       # Number of insts issued each cycle (Count)
system.cpu0.numIssuedDist::max_value                8                       # Number of insts issued each cycle (Count)
system.cpu0.numIssuedDist::total            212393693                       # Number of insts issued each cycle (Count)
system.cpu0.statFuBusy::No_OpClass                  0      0.00%      0.00% # attempts to use FU when none available (Count)
system.cpu0.statFuBusy::IntAlu                  40859      0.97%      0.97% # attempts to use FU when none available (Count)
system.cpu0.statFuBusy::IntMult                     0      0.00%      0.97% # attempts to use FU when none available (Count)
system.cpu0.statFuBusy::IntDiv                      0      0.00%      0.97% # attempts to use FU when none available (Count)
system.cpu0.statFuBusy::FloatAdd                    0      0.00%      0.97% # attempts to use FU when none available (Count)
system.cpu0.statFuBusy::FloatCmp                    0      0.00%      0.97% # attempts to use FU when none available (Count)
system.cpu0.statFuBusy::FloatCvt                    7      0.00%      0.97% # attempts to use FU when none available (Count)
system.cpu0.statFuBusy::FloatMult                   0      0.00%      0.97% # attempts to use FU when none available (Count)
system.cpu0.statFuBusy::FloatMultAcc                0      0.00%      0.97% # attempts to use FU when none available (Count)
system.cpu0.statFuBusy::FloatDiv                    0      0.00%      0.97% # attempts to use FU when none available (Count)
system.cpu0.statFuBusy::FloatMisc                   0      0.00%      0.97% # attempts to use FU when none available (Count)
system.cpu0.statFuBusy::FloatSqrt                   0      0.00%      0.97% # attempts to use FU when none available (Count)
system.cpu0.statFuBusy::SimdAdd                     2      0.00%      0.97% # attempts to use FU when none available (Count)
system.cpu0.statFuBusy::SimdAddAcc                  0      0.00%      0.97% # attempts to use FU when none available (Count)
system.cpu0.statFuBusy::SimdAlu                   109      0.00%      0.97% # attempts to use FU when none available (Count)
system.cpu0.statFuBusy::SimdCmp                     0      0.00%      0.97% # attempts to use FU when none available (Count)
system.cpu0.statFuBusy::SimdCvt                    89      0.00%      0.97% # attempts to use FU when none available (Count)
system.cpu0.statFuBusy::SimdMisc                   50      0.00%      0.97% # attempts to use FU when none available (Count)
system.cpu0.statFuBusy::SimdMult                    0      0.00%      0.97% # attempts to use FU when none available (Count)
system.cpu0.statFuBusy::SimdMultAcc                 0      0.00%      0.97% # attempts to use FU when none available (Count)
system.cpu0.statFuBusy::SimdShift                  15      0.00%      0.97% # attempts to use FU when none available (Count)
system.cpu0.statFuBusy::SimdShiftAcc                0      0.00%      0.97% # attempts to use FU when none available (Count)
system.cpu0.statFuBusy::SimdDiv                     0      0.00%      0.97% # attempts to use FU when none available (Count)
system.cpu0.statFuBusy::SimdSqrt                    0      0.00%      0.97% # attempts to use FU when none available (Count)
system.cpu0.statFuBusy::SimdFloatAdd           685868     16.20%     17.17% # attempts to use FU when none available (Count)
system.cpu0.statFuBusy::SimdFloatAlu                0      0.00%     17.17% # attempts to use FU when none available (Count)
system.cpu0.statFuBusy::SimdFloatCmp                0      0.00%     17.17% # attempts to use FU when none available (Count)
system.cpu0.statFuBusy::SimdFloatCvt                0      0.00%     17.17% # attempts to use FU when none available (Count)
system.cpu0.statFuBusy::SimdFloatDiv                0      0.00%     17.17% # attempts to use FU when none available (Count)
system.cpu0.statFuBusy::SimdFloatMisc               0      0.00%     17.17% # attempts to use FU when none available (Count)
system.cpu0.statFuBusy::SimdFloatMult               0      0.00%     17.17% # attempts to use FU when none available (Count)
system.cpu0.statFuBusy::SimdFloatMultAcc            0      0.00%     17.17% # attempts to use FU when none available (Count)
system.cpu0.statFuBusy::SimdFloatSqrt               0      0.00%     17.17% # attempts to use FU when none available (Count)
system.cpu0.statFuBusy::SimdReduceAdd               0      0.00%     17.17% # attempts to use FU when none available (Count)
system.cpu0.statFuBusy::SimdReduceAlu               0      0.00%     17.17% # attempts to use FU when none available (Count)
system.cpu0.statFuBusy::SimdReduceCmp               0      0.00%     17.17% # attempts to use FU when none available (Count)
system.cpu0.statFuBusy::SimdFloatReduceAdd            0      0.00%     17.17% # attempts to use FU when none available (Count)
system.cpu0.statFuBusy::SimdFloatReduceCmp            0      0.00%     17.17% # attempts to use FU when none available (Count)
system.cpu0.statFuBusy::SimdAes                     0      0.00%     17.17% # attempts to use FU when none available (Count)
system.cpu0.statFuBusy::SimdAesMix                  0      0.00%     17.17% # attempts to use FU when none available (Count)
system.cpu0.statFuBusy::SimdSha1Hash                0      0.00%     17.17% # attempts to use FU when none available (Count)
system.cpu0.statFuBusy::SimdSha1Hash2               0      0.00%     17.17% # attempts to use FU when none available (Count)
system.cpu0.statFuBusy::SimdSha256Hash              0      0.00%     17.17% # attempts to use FU when none available (Count)
system.cpu0.statFuBusy::SimdSha256Hash2             0      0.00%     17.17% # attempts to use FU when none available (Count)
system.cpu0.statFuBusy::SimdShaSigma2               0      0.00%     17.17% # attempts to use FU when none available (Count)
system.cpu0.statFuBusy::SimdShaSigma3               0      0.00%     17.17% # attempts to use FU when none available (Count)
system.cpu0.statFuBusy::SimdPredAlu                 0      0.00%     17.17% # attempts to use FU when none available (Count)
system.cpu0.statFuBusy::MemRead                376648      8.90%     26.07% # attempts to use FU when none available (Count)
system.cpu0.statFuBusy::MemWrite               875999     20.69%     46.76% # attempts to use FU when none available (Count)
system.cpu0.statFuBusy::FloatMemRead          1941608     45.86%     92.61% # attempts to use FU when none available (Count)
system.cpu0.statFuBusy::FloatMemWrite          312749      7.39%    100.00% # attempts to use FU when none available (Count)
system.cpu0.statFuBusy::IprAccess                   0      0.00%    100.00% # attempts to use FU when none available (Count)
system.cpu0.statFuBusy::InstPrefetch                0      0.00%    100.00% # attempts to use FU when none available (Count)
system.cpu0.statIssuedInstType_0::No_OpClass      2765385      3.58%      3.58% # Number of instructions issued per FU type, per thread (Count)
system.cpu0.statIssuedInstType_0::IntAlu     33006614     42.67%     46.25% # Number of instructions issued per FU type, per thread (Count)
system.cpu0.statIssuedInstType_0::IntMult          298      0.00%     46.25% # Number of instructions issued per FU type, per thread (Count)
system.cpu0.statIssuedInstType_0::IntDiv         3061      0.00%     46.25% # Number of instructions issued per FU type, per thread (Count)
system.cpu0.statIssuedInstType_0::FloatAdd      3630916      4.69%     50.94% # Number of instructions issued per FU type, per thread (Count)
system.cpu0.statIssuedInstType_0::FloatCmp            0      0.00%     50.94% # Number of instructions issued per FU type, per thread (Count)
system.cpu0.statIssuedInstType_0::FloatCvt          514      0.00%     50.94% # Number of instructions issued per FU type, per thread (Count)
system.cpu0.statIssuedInstType_0::FloatMult            0      0.00%     50.94% # Number of instructions issued per FU type, per thread (Count)
system.cpu0.statIssuedInstType_0::FloatMultAcc            0      0.00%     50.94% # Number of instructions issued per FU type, per thread (Count)
system.cpu0.statIssuedInstType_0::FloatDiv            0      0.00%     50.94% # Number of instructions issued per FU type, per thread (Count)
system.cpu0.statIssuedInstType_0::FloatMisc            0      0.00%     50.94% # Number of instructions issued per FU type, per thread (Count)
system.cpu0.statIssuedInstType_0::FloatSqrt            0      0.00%     50.94% # Number of instructions issued per FU type, per thread (Count)
system.cpu0.statIssuedInstType_0::SimdAdd         2684      0.00%     50.95% # Number of instructions issued per FU type, per thread (Count)
system.cpu0.statIssuedInstType_0::SimdAddAcc            0      0.00%     50.95% # Number of instructions issued per FU type, per thread (Count)
system.cpu0.statIssuedInstType_0::SimdAlu        32899      0.04%     50.99% # Number of instructions issued per FU type, per thread (Count)
system.cpu0.statIssuedInstType_0::SimdCmp           68      0.00%     50.99% # Number of instructions issued per FU type, per thread (Count)
system.cpu0.statIssuedInstType_0::SimdCvt         6181      0.01%     51.00% # Number of instructions issued per FU type, per thread (Count)
system.cpu0.statIssuedInstType_0::SimdMisc         4170      0.01%     51.00% # Number of instructions issued per FU type, per thread (Count)
system.cpu0.statIssuedInstType_0::SimdMult            0      0.00%     51.00% # Number of instructions issued per FU type, per thread (Count)
system.cpu0.statIssuedInstType_0::SimdMultAcc            0      0.00%     51.00% # Number of instructions issued per FU type, per thread (Count)
system.cpu0.statIssuedInstType_0::SimdShift         1512      0.00%     51.01% # Number of instructions issued per FU type, per thread (Count)
system.cpu0.statIssuedInstType_0::SimdShiftAcc            0      0.00%     51.01% # Number of instructions issued per FU type, per thread (Count)
system.cpu0.statIssuedInstType_0::SimdDiv            0      0.00%     51.01% # Number of instructions issued per FU type, per thread (Count)
system.cpu0.statIssuedInstType_0::SimdSqrt            0      0.00%     51.01% # Number of instructions issued per FU type, per thread (Count)
system.cpu0.statIssuedInstType_0::SimdFloatAdd      7134271      9.22%     60.23% # Number of instructions issued per FU type, per thread (Count)
system.cpu0.statIssuedInstType_0::SimdFloatAlu            0      0.00%     60.23% # Number of instructions issued per FU type, per thread (Count)
system.cpu0.statIssuedInstType_0::SimdFloatCmp           26      0.00%     60.23% # Number of instructions issued per FU type, per thread (Count)
system.cpu0.statIssuedInstType_0::SimdFloatCvt      3018130      3.90%     64.13% # Number of instructions issued per FU type, per thread (Count)
system.cpu0.statIssuedInstType_0::SimdFloatDiv           17      0.00%     64.13% # Number of instructions issued per FU type, per thread (Count)
system.cpu0.statIssuedInstType_0::SimdFloatMisc            0      0.00%     64.13% # Number of instructions issued per FU type, per thread (Count)
system.cpu0.statIssuedInstType_0::SimdFloatMult      1006643      1.30%     65.43% # Number of instructions issued per FU type, per thread (Count)
system.cpu0.statIssuedInstType_0::SimdFloatMultAcc            0      0.00%     65.43% # Number of instructions issued per FU type, per thread (Count)
system.cpu0.statIssuedInstType_0::SimdFloatSqrt            0      0.00%     65.43% # Number of instructions issued per FU type, per thread (Count)
system.cpu0.statIssuedInstType_0::SimdReduceAdd            0      0.00%     65.43% # Number of instructions issued per FU type, per thread (Count)
system.cpu0.statIssuedInstType_0::SimdReduceAlu            0      0.00%     65.43% # Number of instructions issued per FU type, per thread (Count)
system.cpu0.statIssuedInstType_0::SimdReduceCmp            0      0.00%     65.43% # Number of instructions issued per FU type, per thread (Count)
system.cpu0.statIssuedInstType_0::SimdFloatReduceAdd            0      0.00%     65.43% # Number of instructions issued per FU type, per thread (Count)
system.cpu0.statIssuedInstType_0::SimdFloatReduceCmp            0      0.00%     65.43% # Number of instructions issued per FU type, per thread (Count)
system.cpu0.statIssuedInstType_0::SimdAes            0      0.00%     65.43% # Number of instructions issued per FU type, per thread (Count)
system.cpu0.statIssuedInstType_0::SimdAesMix            0      0.00%     65.43% # Number of instructions issued per FU type, per thread (Count)
system.cpu0.statIssuedInstType_0::SimdSha1Hash            0      0.00%     65.43% # Number of instructions issued per FU type, per thread (Count)
system.cpu0.statIssuedInstType_0::SimdSha1Hash2            0      0.00%     65.43% # Number of instructions issued per FU type, per thread (Count)
system.cpu0.statIssuedInstType_0::SimdSha256Hash            0      0.00%     65.43% # Number of instructions issued per FU type, per thread (Count)
system.cpu0.statIssuedInstType_0::SimdSha256Hash2            0      0.00%     65.43% # Number of instructions issued per FU type, per thread (Count)
system.cpu0.statIssuedInstType_0::SimdShaSigma2            0      0.00%     65.43% # Number of instructions issued per FU type, per thread (Count)
system.cpu0.statIssuedInstType_0::SimdShaSigma3            0      0.00%     65.43% # Number of instructions issued per FU type, per thread (Count)
system.cpu0.statIssuedInstType_0::SimdPredAlu            0      0.00%     65.43% # Number of instructions issued per FU type, per thread (Count)
system.cpu0.statIssuedInstType_0::MemRead      1583171      2.05%     67.48% # Number of instructions issued per FU type, per thread (Count)
system.cpu0.statIssuedInstType_0::MemWrite      3187618      4.12%     71.60% # Number of instructions issued per FU type, per thread (Count)
system.cpu0.statIssuedInstType_0::FloatMemRead     14338102     18.54%     90.14% # Number of instructions issued per FU type, per thread (Count)
system.cpu0.statIssuedInstType_0::FloatMemWrite      7629893      9.86%    100.00% # Number of instructions issued per FU type, per thread (Count)
system.cpu0.statIssuedInstType_0::IprAccess            0      0.00%    100.00% # Number of instructions issued per FU type, per thread (Count)
system.cpu0.statIssuedInstType_0::InstPrefetch            0      0.00%    100.00% # Number of instructions issued per FU type, per thread (Count)
system.cpu0.statIssuedInstType_0::total      77352173                       # Number of instructions issued per FU type, per thread (Count)
system.cpu0.issueRate                        0.363483                       # Inst issue rate ((Count/Cycle))
system.cpu0.fuBusy                            4234003                       # FU busy when requested (Count)
system.cpu0.fuBusyRate                       0.054737                       # FU busy rate (busy events/executed inst) ((Count/Count))
system.cpu0.intInstQueueReads               290731577                       # Number of integer instruction queue reads (Count)
system.cpu0.intInstQueueWrites               52799064                       # Number of integer instruction queue writes (Count)
system.cpu0.intInstQueueWakeupAccesses       35739241                       # Number of integer instruction queue wakeup accesses (Count)
system.cpu0.fpInstQueueReads                 80602681                       # Number of floating instruction queue reads (Count)
system.cpu0.fpInstQueueWrites                48996274                       # Number of floating instruction queue writes (Count)
system.cpu0.fpInstQueueWakeupAccesses        38638051                       # Number of floating instruction queue wakeup accesses (Count)
system.cpu0.vecInstQueueReads                       0                       # Number of vector instruction queue reads (Count)
system.cpu0.vecInstQueueWrites                      0                       # Number of vector instruction queue writes (Count)
system.cpu0.vecInstQueueWakeupAccesses              0                       # Number of vector instruction queue wakeup accesses (Count)
system.cpu0.intAluAccesses                   37036807                       # Number of integer alu accesses (Count)
system.cpu0.fpAluAccesses                    41783984                       # Number of floating point alu accesses (Count)
system.cpu0.vecAluAccesses                          0                       # Number of vector alu accesses (Count)
system.cpu0.numInsts                         77325332                       # Number of executed instructions (Count)
system.cpu0.numLoadInsts                     15915052                       # Number of load instructions executed (Count)
system.cpu0.numSquashedInsts                    26841                       # Number of squashed instructions skipped in execute (Count)
system.cpu0.numSwp                                  0                       # Number of swp insts executed (Count)
system.cpu0.numNop                                  0                       # Number of nop insts executed (Count)
system.cpu0.numRefs                          26731510                       # Number of memory reference insts executed (Count)
system.cpu0.numBranches                       5455191                       # Number of branches executed (Count)
system.cpu0.numStoreInsts                    10816458                       # Number of stores executed (Count)
system.cpu0.numRate                          0.363357                       # Inst execution rate ((Count/Cycle))
system.cpu0.timesIdled                           1774                       # Number of times that the entire CPU went into an idle state and unscheduled itself (Count)
system.cpu0.idleCycles                         414451                       # Total number of cycles that the CPU has spent unscheduled due to idling (Cycle)
system.cpu0.committedInsts                   28867189                       # Number of Instructions Simulated (Count)
system.cpu0.committedOps                     52810960                       # Number of Ops (including micro ops) Simulated (Count)
system.cpu0.cpi                              7.371973                       # CPI: Cycles Per Instruction ((Cycle/Count))
system.cpu0.totalCpi                         7.371973                       # CPI: Total CPI of All Threads ((Cycle/Count))
system.cpu0.ipc                              0.135649                       # IPC: Instructions Per Cycle ((Count/Cycle))
system.cpu0.totalIpc                         0.135649                       # IPC: Total IPC of All Threads ((Count/Cycle))
system.cpu0.intRegfileReads                  58570098                       # Number of integer regfile reads (Count)
system.cpu0.intRegfileWrites                 23283286                       # Number of integer regfile writes (Count)
system.cpu0.fpRegfileReads                   42203955                       # Number of floating regfile reads (Count)
system.cpu0.fpRegfileWrites                  28000562                       # Number of floating regfile writes (Count)
system.cpu0.ccRegfileReads                   33217672                       # number of cc regfile reads (Count)
system.cpu0.ccRegfileWrites                  19921931                       # number of cc regfile writes (Count)
system.cpu0.miscRegfileReads                 37661673                       # number of misc regfile reads (Count)
system.cpu0.miscRegfileWrites                     234                       # number of misc regfile writes (Count)
system.cpu0.MemDepUnit__0.insertedLoads      15756327                       # Number of loads inserted to the mem dependence unit. (Count)
system.cpu0.MemDepUnit__0.insertedStores     10823247                       # Number of stores inserted to the mem dependence unit. (Count)
system.cpu0.MemDepUnit__0.conflictingLoads       129403                       # Number of conflicting loads. (Count)
system.cpu0.MemDepUnit__0.conflictingStores       128608                       # Number of conflicting stores. (Count)
system.cpu0.MemDepUnit__1.insertedLoads             0                       # Number of loads inserted to the mem dependence unit. (Count)
system.cpu0.MemDepUnit__1.insertedStores            0                       # Number of stores inserted to the mem dependence unit. (Count)
system.cpu0.MemDepUnit__1.conflictingLoads            0                       # Number of conflicting loads. (Count)
system.cpu0.MemDepUnit__1.conflictingStores            0                       # Number of conflicting stores. (Count)
system.cpu0.MemDepUnit__2.insertedLoads             0                       # Number of loads inserted to the mem dependence unit. (Count)
system.cpu0.MemDepUnit__2.insertedStores            0                       # Number of stores inserted to the mem dependence unit. (Count)
system.cpu0.MemDepUnit__2.conflictingLoads            0                       # Number of conflicting loads. (Count)
system.cpu0.MemDepUnit__2.conflictingStores            0                       # Number of conflicting stores. (Count)
system.cpu0.MemDepUnit__3.insertedLoads             0                       # Number of loads inserted to the mem dependence unit. (Count)
system.cpu0.MemDepUnit__3.insertedStores            0                       # Number of stores inserted to the mem dependence unit. (Count)
system.cpu0.MemDepUnit__3.conflictingLoads            0                       # Number of conflicting loads. (Count)
system.cpu0.MemDepUnit__3.conflictingStores            0                       # Number of conflicting stores. (Count)
system.cpu0.branchPred.lookups                5882244                       # Number of BP lookups (Count)
system.cpu0.branchPred.condPredicted          5829825                       # Number of conditional branches predicted (Count)
system.cpu0.branchPred.condIncorrect             8992                       # Number of conditional branches incorrect (Count)
system.cpu0.branchPred.BTBLookups             2728982                       # Number of BTB lookups (Count)
system.cpu0.branchPred.BTBHits                2725208                       # Number of BTB hits (Count)
system.cpu0.branchPred.BTBHitRatio           0.998617                       # BTB Hit Ratio (Ratio)
system.cpu0.branchPred.RASUsed                  19746                       # Number of times the RAS was used to get a target. (Count)
system.cpu0.branchPred.RASIncorrect                10                       # Number of incorrect RAS predictions. (Count)
system.cpu0.branchPred.indirectLookups           9667                       # Number of indirect predictor lookups. (Count)
system.cpu0.branchPred.indirectHits              5753                       # Number of indirect target hits. (Count)
system.cpu0.branchPred.indirectMisses            3914                       # Number of indirect misses. (Count)
system.cpu0.branchPred.indirectMispredicted          824                       # Number of mispredicted indirect branches. (Count)
system.cpu0.commit.commitSquashedInsts       21637534                       # The number of squashed insts skipped by commit (Count)
system.cpu0.commit.commitNonSpecStalls            904                       # The number of times commit has been forced to stall to communicate backwards (Count)
system.cpu0.commit.branchMispredicts             8801                       # The number of times a branch was mispredicted (Count)
system.cpu0.commit.numCommittedDist::samples    209506792                       # Number of insts commited each cycle (Count)
system.cpu0.commit.numCommittedDist::mean     0.252073                       # Number of insts commited each cycle (Count)
system.cpu0.commit.numCommittedDist::stdev     1.273192                       # Number of insts commited each cycle (Count)
system.cpu0.commit.numCommittedDist::underflows            0      0.00%      0.00% # Number of insts commited each cycle (Count)
system.cpu0.commit.numCommittedDist::0      198528048     94.76%     94.76% # Number of insts commited each cycle (Count)
system.cpu0.commit.numCommittedDist::1        2507201      1.20%     95.96% # Number of insts commited each cycle (Count)
system.cpu0.commit.numCommittedDist::2        1022906      0.49%     96.44% # Number of insts commited each cycle (Count)
system.cpu0.commit.numCommittedDist::3        1292529      0.62%     97.06% # Number of insts commited each cycle (Count)
system.cpu0.commit.numCommittedDist::4        1075319      0.51%     97.57% # Number of insts commited each cycle (Count)
system.cpu0.commit.numCommittedDist::5         130015      0.06%     97.64% # Number of insts commited each cycle (Count)
system.cpu0.commit.numCommittedDist::6          23918      0.01%     97.65% # Number of insts commited each cycle (Count)
system.cpu0.commit.numCommittedDist::7         129347      0.06%     97.71% # Number of insts commited each cycle (Count)
system.cpu0.commit.numCommittedDist::8        4797509      2.29%    100.00% # Number of insts commited each cycle (Count)
system.cpu0.commit.numCommittedDist::overflows            0      0.00%    100.00% # Number of insts commited each cycle (Count)
system.cpu0.commit.numCommittedDist::min_value            0                       # Number of insts commited each cycle (Count)
system.cpu0.commit.numCommittedDist::max_value            8                       # Number of insts commited each cycle (Count)
system.cpu0.commit.numCommittedDist::total    209506792                       # Number of insts commited each cycle (Count)
system.cpu0.commit.instsCommitted            28867189                       # Number of instructions committed (Count)
system.cpu0.commit.opsCommitted              52810960                       # Number of ops (including micro ops) committed (Count)
system.cpu0.commit.memRefs                   12212324                       # Number of memory references committed (Count)
system.cpu0.commit.loads                      9411980                       # Number of loads committed (Count)
system.cpu0.commit.amos                             0                       # Number of atomic instructions committed (Count)
system.cpu0.commit.membars                        444                       # Number of memory barriers committed (Count)
system.cpu0.commit.branches                   4789787                       # Number of branches committed (Count)
system.cpu0.commit.vectorInstructions               0                       # Number of committed Vector instructions. (Count)
system.cpu0.commit.floating                  28320432                       # Number of committed floating point instructions. (Count)
system.cpu0.commit.integer                   35967131                       # Number of committed integer instructions. (Count)
system.cpu0.commit.functionCalls                 8263                       # Number of function calls committed. (Count)
system.cpu0.commit.committedInstType_0::No_OpClass         6814      0.01%      0.01% # Class of committed instruction (Count)
system.cpu0.commit.committedInstType_0::IntAlu     25797687     48.85%     48.86% # Class of committed instruction (Count)
system.cpu0.commit.committedInstType_0::IntMult          272      0.00%     48.86% # Class of committed instruction (Count)
system.cpu0.commit.committedInstType_0::IntDiv         2797      0.01%     48.87% # Class of committed instruction (Count)
system.cpu0.commit.committedInstType_0::FloatAdd      3627967      6.87%     55.74% # Class of committed instruction (Count)
system.cpu0.commit.committedInstType_0::FloatCmp            0      0.00%     55.74% # Class of committed instruction (Count)
system.cpu0.commit.committedInstType_0::FloatCvt          416      0.00%     55.74% # Class of committed instruction (Count)
system.cpu0.commit.committedInstType_0::FloatMult            0      0.00%     55.74% # Class of committed instruction (Count)
system.cpu0.commit.committedInstType_0::FloatMultAcc            0      0.00%     55.74% # Class of committed instruction (Count)
system.cpu0.commit.committedInstType_0::FloatDiv            0      0.00%     55.74% # Class of committed instruction (Count)
system.cpu0.commit.committedInstType_0::FloatMisc            0      0.00%     55.74% # Class of committed instruction (Count)
system.cpu0.commit.committedInstType_0::FloatSqrt            0      0.00%     55.74% # Class of committed instruction (Count)
system.cpu0.commit.committedInstType_0::SimdAdd         2098      0.00%     55.74% # Class of committed instruction (Count)
system.cpu0.commit.committedInstType_0::SimdAddAcc            0      0.00%     55.74% # Class of committed instruction (Count)
system.cpu0.commit.committedInstType_0::SimdAlu        12804      0.02%     55.77% # Class of committed instruction (Count)
system.cpu0.commit.committedInstType_0::SimdCmp           66      0.00%     55.77% # Class of committed instruction (Count)
system.cpu0.commit.committedInstType_0::SimdCvt         4504      0.01%     55.78% # Class of committed instruction (Count)
system.cpu0.commit.committedInstType_0::SimdMisc         3511      0.01%     55.78% # Class of committed instruction (Count)
system.cpu0.commit.committedInstType_0::SimdMult            0      0.00%     55.78% # Class of committed instruction (Count)
system.cpu0.commit.committedInstType_0::SimdMultAcc            0      0.00%     55.78% # Class of committed instruction (Count)
system.cpu0.commit.committedInstType_0::SimdShift          727      0.00%     55.78% # Class of committed instruction (Count)
system.cpu0.commit.committedInstType_0::SimdShiftAcc            0      0.00%     55.78% # Class of committed instruction (Count)
system.cpu0.commit.committedInstType_0::SimdDiv            0      0.00%     55.78% # Class of committed instruction (Count)
system.cpu0.commit.committedInstType_0::SimdSqrt            0      0.00%     55.78% # Class of committed instruction (Count)
system.cpu0.commit.committedInstType_0::SimdFloatAdd      7129630     13.50%     69.28% # Class of committed instruction (Count)
system.cpu0.commit.committedInstType_0::SimdFloatAlu            0      0.00%     69.28% # Class of committed instruction (Count)
system.cpu0.commit.committedInstType_0::SimdFloatCmp           24      0.00%     69.28% # Class of committed instruction (Count)
system.cpu0.commit.committedInstType_0::SimdFloatCvt      3006958      5.69%     74.98% # Class of committed instruction (Count)
system.cpu0.commit.committedInstType_0::SimdFloatDiv           15      0.00%     74.98% # Class of committed instruction (Count)
system.cpu0.commit.committedInstType_0::SimdFloatMisc            0      0.00%     74.98% # Class of committed instruction (Count)
system.cpu0.commit.committedInstType_0::SimdFloatMult      1002346      1.90%     76.88% # Class of committed instruction (Count)
system.cpu0.commit.committedInstType_0::SimdFloatMultAcc            0      0.00%     76.88% # Class of committed instruction (Count)
system.cpu0.commit.committedInstType_0::SimdFloatSqrt            0      0.00%     76.88% # Class of committed instruction (Count)
system.cpu0.commit.committedInstType_0::SimdReduceAdd            0      0.00%     76.88% # Class of committed instruction (Count)
system.cpu0.commit.committedInstType_0::SimdReduceAlu            0      0.00%     76.88% # Class of committed instruction (Count)
system.cpu0.commit.committedInstType_0::SimdReduceCmp            0      0.00%     76.88% # Class of committed instruction (Count)
system.cpu0.commit.committedInstType_0::SimdFloatReduceAdd            0      0.00%     76.88% # Class of committed instruction (Count)
system.cpu0.commit.committedInstType_0::SimdFloatReduceCmp            0      0.00%     76.88% # Class of committed instruction (Count)
system.cpu0.commit.committedInstType_0::SimdAes            0      0.00%     76.88% # Class of committed instruction (Count)
system.cpu0.commit.committedInstType_0::SimdAesMix            0      0.00%     76.88% # Class of committed instruction (Count)
system.cpu0.commit.committedInstType_0::SimdSha1Hash            0      0.00%     76.88% # Class of committed instruction (Count)
system.cpu0.commit.committedInstType_0::SimdSha1Hash2            0      0.00%     76.88% # Class of committed instruction (Count)
system.cpu0.commit.committedInstType_0::SimdSha256Hash            0      0.00%     76.88% # Class of committed instruction (Count)
system.cpu0.commit.committedInstType_0::SimdSha256Hash2            0      0.00%     76.88% # Class of committed instruction (Count)
system.cpu0.commit.committedInstType_0::SimdShaSigma2            0      0.00%     76.88% # Class of committed instruction (Count)
system.cpu0.commit.committedInstType_0::SimdShaSigma3            0      0.00%     76.88% # Class of committed instruction (Count)
system.cpu0.commit.committedInstType_0::SimdPredAlu            0      0.00%     76.88% # Class of committed instruction (Count)
system.cpu0.commit.committedInstType_0::MemRead       268229      0.51%     77.38% # Class of committed instruction (Count)
system.cpu0.commit.committedInstType_0::MemWrite       420300      0.80%     78.18% # Class of committed instruction (Count)
system.cpu0.commit.committedInstType_0::FloatMemRead      9143751     17.31%     95.49% # Class of committed instruction (Count)
system.cpu0.commit.committedInstType_0::FloatMemWrite      2380044      4.51%    100.00% # Class of committed instruction (Count)
system.cpu0.commit.committedInstType_0::IprAccess            0      0.00%    100.00% # Class of committed instruction (Count)
system.cpu0.commit.committedInstType_0::InstPrefetch            0      0.00%    100.00% # Class of committed instruction (Count)
system.cpu0.commit.committedInstType_0::total     52810960                       # Class of committed instruction (Count)
system.cpu0.commit.commitEligibleSamples      4797509                       # number cycles where commit BW limit reached (Cycle)
system.cpu0.dcache.demandHits::cpu0.data     12096678                       # number of demand (read+write) hits (Count)
system.cpu0.dcache.demandHits::total         12096678                       # number of demand (read+write) hits (Count)
system.cpu0.dcache.overallHits::cpu0.data     13311456                       # number of overall hits (Count)
system.cpu0.dcache.overallHits::total        13311456                       # number of overall hits (Count)
system.cpu0.dcache.demandMisses::cpu0.data      4797739                       # number of demand (read+write) misses (Count)
system.cpu0.dcache.demandMisses::total        4797739                       # number of demand (read+write) misses (Count)
system.cpu0.dcache.overallMisses::cpu0.data      4957783                       # number of overall misses (Count)
system.cpu0.dcache.overallMisses::total       4957783                       # number of overall misses (Count)
system.cpu0.dcache.demandMissLatency::cpu0.data 308238784134                       # number of demand (read+write) miss ticks (Tick)
system.cpu0.dcache.demandMissLatency::total 308238784134                       # number of demand (read+write) miss ticks (Tick)
system.cpu0.dcache.overallMissLatency::cpu0.data 308238784134                       # number of overall miss ticks (Tick)
system.cpu0.dcache.overallMissLatency::total 308238784134                       # number of overall miss ticks (Tick)
system.cpu0.dcache.demandAccesses::cpu0.data     16894417                       # number of demand (read+write) accesses (Count)
system.cpu0.dcache.demandAccesses::total     16894417                       # number of demand (read+write) accesses (Count)
system.cpu0.dcache.overallAccesses::cpu0.data     18269239                       # number of overall (read+write) accesses (Count)
system.cpu0.dcache.overallAccesses::total     18269239                       # number of overall (read+write) accesses (Count)
system.cpu0.dcache.demandMissRate::cpu0.data     0.283984                       # miss rate for demand accesses (Ratio)
system.cpu0.dcache.demandMissRate::total     0.283984                       # miss rate for demand accesses (Ratio)
system.cpu0.dcache.overallMissRate::cpu0.data     0.271373                       # miss rate for overall accesses (Ratio)
system.cpu0.dcache.overallMissRate::total     0.271373                       # miss rate for overall accesses (Ratio)
system.cpu0.dcache.demandAvgMissLatency::cpu0.data 64246.676223                       # average overall miss latency in ticks ((Tick/Count))
system.cpu0.dcache.demandAvgMissLatency::total 64246.676223                       # average overall miss latency in ticks ((Tick/Count))
system.cpu0.dcache.overallAvgMissLatency::cpu0.data 62172.705851                       # average overall miss latency ((Tick/Count))
system.cpu0.dcache.overallAvgMissLatency::total 62172.705851                       # average overall miss latency ((Tick/Count))
system.cpu0.dcache.blockedCycles::no_mshrs     27523066                       # number of cycles access was blocked (Cycle)
system.cpu0.dcache.blockedCycles::no_targets         2859                       # number of cycles access was blocked (Cycle)
system.cpu0.dcache.blockedCauses::no_mshrs       233870                       # number of times access was blocked (Count)
system.cpu0.dcache.blockedCauses::no_targets           24                       # number of times access was blocked (Count)
system.cpu0.dcache.avgBlocked::no_mshrs    117.685321                       # average number of cycles each access was blocked ((Cycle/Count))
system.cpu0.dcache.avgBlocked::no_targets   119.125000                       # average number of cycles each access was blocked ((Cycle/Count))
system.cpu0.dcache.writebacks::writebacks       315141                       # number of writebacks (Count)
system.cpu0.dcache.writebacks::total           315141                       # number of writebacks (Count)
system.cpu0.dcache.demandMshrHits::cpu0.data      3791299                       # number of demand (read+write) MSHR hits (Count)
system.cpu0.dcache.demandMshrHits::total      3791299                       # number of demand (read+write) MSHR hits (Count)
system.cpu0.dcache.overallMshrHits::cpu0.data      3791299                       # number of overall MSHR hits (Count)
system.cpu0.dcache.overallMshrHits::total      3791299                       # number of overall MSHR hits (Count)
system.cpu0.dcache.demandMshrMisses::cpu0.data      1006440                       # number of demand (read+write) MSHR misses (Count)
system.cpu0.dcache.demandMshrMisses::total      1006440                       # number of demand (read+write) MSHR misses (Count)
system.cpu0.dcache.overallMshrMisses::cpu0.data      1068935                       # number of overall MSHR misses (Count)
system.cpu0.dcache.overallMshrMisses::total      1068935                       # number of overall MSHR misses (Count)
system.cpu0.dcache.demandMshrMissLatency::cpu0.data 118589833886                       # number of demand (read+write) MSHR miss ticks (Tick)
system.cpu0.dcache.demandMshrMissLatency::total 118589833886                       # number of demand (read+write) MSHR miss ticks (Tick)
system.cpu0.dcache.overallMshrMissLatency::cpu0.data 125885188886                       # number of overall MSHR miss ticks (Tick)
system.cpu0.dcache.overallMshrMissLatency::total 125885188886                       # number of overall MSHR miss ticks (Tick)
system.cpu0.dcache.demandMshrMissRate::cpu0.data     0.059572                       # mshr miss ratio for demand accesses (Ratio)
system.cpu0.dcache.demandMshrMissRate::total     0.059572                       # mshr miss ratio for demand accesses (Ratio)
system.cpu0.dcache.overallMshrMissRate::cpu0.data     0.058510                       # mshr miss ratio for overall accesses (Ratio)
system.cpu0.dcache.overallMshrMissRate::total     0.058510                       # mshr miss ratio for overall accesses (Ratio)
system.cpu0.dcache.demandAvgMshrMissLatency::cpu0.data 117831.002232                       # average overall mshr miss latency ((Tick/Count))
system.cpu0.dcache.demandAvgMshrMissLatency::total 117831.002232                       # average overall mshr miss latency ((Tick/Count))
system.cpu0.dcache.overallAvgMshrMissLatency::cpu0.data 117766.925852                       # average overall mshr miss latency ((Tick/Count))
system.cpu0.dcache.overallAvgMshrMissLatency::total 117766.925852                       # average overall mshr miss latency ((Tick/Count))
system.cpu0.dcache.replacements               1067621                       # number of replacements (Count)
system.cpu0.dcache.LockedRMWReadReq.hits::cpu0.data          179                       # number of LockedRMWReadReq hits (Count)
system.cpu0.dcache.LockedRMWReadReq.hits::total          179                       # number of LockedRMWReadReq hits (Count)
system.cpu0.dcache.LockedRMWReadReq.misses::cpu0.data           43                       # number of LockedRMWReadReq misses (Count)
system.cpu0.dcache.LockedRMWReadReq.misses::total           43                       # number of LockedRMWReadReq misses (Count)
system.cpu0.dcache.LockedRMWReadReq.missLatency::cpu0.data       338000                       # number of LockedRMWReadReq miss ticks (Tick)
system.cpu0.dcache.LockedRMWReadReq.missLatency::total       338000                       # number of LockedRMWReadReq miss ticks (Tick)
system.cpu0.dcache.LockedRMWReadReq.accesses::cpu0.data          222                       # number of LockedRMWReadReq accesses(hits+misses) (Count)
system.cpu0.dcache.LockedRMWReadReq.accesses::total          222                       # number of LockedRMWReadReq accesses(hits+misses) (Count)
system.cpu0.dcache.LockedRMWReadReq.missRate::cpu0.data     0.193694                       # miss rate for LockedRMWReadReq accesses (Ratio)
system.cpu0.dcache.LockedRMWReadReq.missRate::total     0.193694                       # miss rate for LockedRMWReadReq accesses (Ratio)
system.cpu0.dcache.LockedRMWReadReq.avgMissLatency::cpu0.data  7860.465116                       # average LockedRMWReadReq miss latency ((Tick/Count))
system.cpu0.dcache.LockedRMWReadReq.avgMissLatency::total  7860.465116                       # average LockedRMWReadReq miss latency ((Tick/Count))
system.cpu0.dcache.LockedRMWReadReq.mshrMisses::cpu0.data           43                       # number of LockedRMWReadReq MSHR misses (Count)
system.cpu0.dcache.LockedRMWReadReq.mshrMisses::total           43                       # number of LockedRMWReadReq MSHR misses (Count)
system.cpu0.dcache.LockedRMWReadReq.mshrMissLatency::cpu0.data      1148750                       # number of LockedRMWReadReq MSHR miss ticks (Tick)
system.cpu0.dcache.LockedRMWReadReq.mshrMissLatency::total      1148750                       # number of LockedRMWReadReq MSHR miss ticks (Tick)
system.cpu0.dcache.LockedRMWReadReq.mshrMissRate::cpu0.data     0.193694                       # mshr miss rate for LockedRMWReadReq accesses (Ratio)
system.cpu0.dcache.LockedRMWReadReq.mshrMissRate::total     0.193694                       # mshr miss rate for LockedRMWReadReq accesses (Ratio)
system.cpu0.dcache.LockedRMWReadReq.avgMshrMissLatency::cpu0.data 26715.116279                       # average LockedRMWReadReq mshr miss latency ((Tick/Count))
system.cpu0.dcache.LockedRMWReadReq.avgMshrMissLatency::total 26715.116279                       # average LockedRMWReadReq mshr miss latency ((Tick/Count))
system.cpu0.dcache.LockedRMWWriteReq.hits::cpu0.data          222                       # number of LockedRMWWriteReq hits (Count)
system.cpu0.dcache.LockedRMWWriteReq.hits::total          222                       # number of LockedRMWWriteReq hits (Count)
system.cpu0.dcache.LockedRMWWriteReq.accesses::cpu0.data          222                       # number of LockedRMWWriteReq accesses(hits+misses) (Count)
system.cpu0.dcache.LockedRMWWriteReq.accesses::total          222                       # number of LockedRMWWriteReq accesses(hits+misses) (Count)
system.cpu0.dcache.ReadReq.hits::cpu0.data      9845481                       # number of ReadReq hits (Count)
system.cpu0.dcache.ReadReq.hits::total        9845481                       # number of ReadReq hits (Count)
system.cpu0.dcache.ReadReq.misses::cpu0.data      4498778                       # number of ReadReq misses (Count)
system.cpu0.dcache.ReadReq.misses::total      4498778                       # number of ReadReq misses (Count)
system.cpu0.dcache.ReadReq.missLatency::cpu0.data 272830324750                       # number of ReadReq miss ticks (Tick)
system.cpu0.dcache.ReadReq.missLatency::total 272830324750                       # number of ReadReq miss ticks (Tick)
system.cpu0.dcache.ReadReq.accesses::cpu0.data     14344259                       # number of ReadReq accesses(hits+misses) (Count)
system.cpu0.dcache.ReadReq.accesses::total     14344259                       # number of ReadReq accesses(hits+misses) (Count)
system.cpu0.dcache.ReadReq.missRate::cpu0.data     0.313629                       # miss rate for ReadReq accesses (Ratio)
system.cpu0.dcache.ReadReq.missRate::total     0.313629                       # miss rate for ReadReq accesses (Ratio)
system.cpu0.dcache.ReadReq.avgMissLatency::cpu0.data 60645.429659                       # average ReadReq miss latency ((Tick/Count))
system.cpu0.dcache.ReadReq.avgMissLatency::total 60645.429659                       # average ReadReq miss latency ((Tick/Count))
system.cpu0.dcache.ReadReq.mshrHits::cpu0.data      3791291                       # number of ReadReq MSHR hits (Count)
system.cpu0.dcache.ReadReq.mshrHits::total      3791291                       # number of ReadReq MSHR hits (Count)
system.cpu0.dcache.ReadReq.mshrMisses::cpu0.data       707487                       # number of ReadReq MSHR misses (Count)
system.cpu0.dcache.ReadReq.mshrMisses::total       707487                       # number of ReadReq MSHR misses (Count)
system.cpu0.dcache.ReadReq.mshrMissLatency::cpu0.data  83331252750                       # number of ReadReq MSHR miss ticks (Tick)
system.cpu0.dcache.ReadReq.mshrMissLatency::total  83331252750                       # number of ReadReq MSHR miss ticks (Tick)
system.cpu0.dcache.ReadReq.mshrMissRate::cpu0.data     0.049322                       # mshr miss rate for ReadReq accesses (Ratio)
system.cpu0.dcache.ReadReq.mshrMissRate::total     0.049322                       # mshr miss rate for ReadReq accesses (Ratio)
system.cpu0.dcache.ReadReq.avgMshrMissLatency::cpu0.data 117784.853644                       # average ReadReq mshr miss latency ((Tick/Count))
system.cpu0.dcache.ReadReq.avgMshrMissLatency::total 117784.853644                       # average ReadReq mshr miss latency ((Tick/Count))
system.cpu0.dcache.SoftPFReq.hits::cpu0.data      1214778                       # number of SoftPFReq hits (Count)
system.cpu0.dcache.SoftPFReq.hits::total      1214778                       # number of SoftPFReq hits (Count)
system.cpu0.dcache.SoftPFReq.misses::cpu0.data       160044                       # number of SoftPFReq misses (Count)
system.cpu0.dcache.SoftPFReq.misses::total       160044                       # number of SoftPFReq misses (Count)
system.cpu0.dcache.SoftPFReq.accesses::cpu0.data      1374822                       # number of SoftPFReq accesses(hits+misses) (Count)
system.cpu0.dcache.SoftPFReq.accesses::total      1374822                       # number of SoftPFReq accesses(hits+misses) (Count)
system.cpu0.dcache.SoftPFReq.missRate::cpu0.data     0.116411                       # miss rate for SoftPFReq accesses (Ratio)
system.cpu0.dcache.SoftPFReq.missRate::total     0.116411                       # miss rate for SoftPFReq accesses (Ratio)
system.cpu0.dcache.SoftPFReq.mshrMisses::cpu0.data        62495                       # number of SoftPFReq MSHR misses (Count)
system.cpu0.dcache.SoftPFReq.mshrMisses::total        62495                       # number of SoftPFReq MSHR misses (Count)
system.cpu0.dcache.SoftPFReq.mshrMissLatency::cpu0.data   7295355000                       # number of SoftPFReq MSHR miss ticks (Tick)
system.cpu0.dcache.SoftPFReq.mshrMissLatency::total   7295355000                       # number of SoftPFReq MSHR miss ticks (Tick)
system.cpu0.dcache.SoftPFReq.mshrMissRate::cpu0.data     0.045457                       # mshr miss rate for SoftPFReq accesses (Ratio)
system.cpu0.dcache.SoftPFReq.mshrMissRate::total     0.045457                       # mshr miss rate for SoftPFReq accesses (Ratio)
system.cpu0.dcache.SoftPFReq.avgMshrMissLatency::cpu0.data 116735.018802                       # average SoftPFReq mshr miss latency ((Tick/Count))
system.cpu0.dcache.SoftPFReq.avgMshrMissLatency::total 116735.018802                       # average SoftPFReq mshr miss latency ((Tick/Count))
system.cpu0.dcache.WriteReq.hits::cpu0.data      2251197                       # number of WriteReq hits (Count)
system.cpu0.dcache.WriteReq.hits::total       2251197                       # number of WriteReq hits (Count)
system.cpu0.dcache.WriteReq.misses::cpu0.data       298961                       # number of WriteReq misses (Count)
system.cpu0.dcache.WriteReq.misses::total       298961                       # number of WriteReq misses (Count)
system.cpu0.dcache.WriteReq.missLatency::cpu0.data  35408459384                       # number of WriteReq miss ticks (Tick)
system.cpu0.dcache.WriteReq.missLatency::total  35408459384                       # number of WriteReq miss ticks (Tick)
system.cpu0.dcache.WriteReq.accesses::cpu0.data      2550158                       # number of WriteReq accesses(hits+misses) (Count)
system.cpu0.dcache.WriteReq.accesses::total      2550158                       # number of WriteReq accesses(hits+misses) (Count)
system.cpu0.dcache.WriteReq.missRate::cpu0.data     0.117232                       # miss rate for WriteReq accesses (Ratio)
system.cpu0.dcache.WriteReq.missRate::total     0.117232                       # miss rate for WriteReq accesses (Ratio)
system.cpu0.dcache.WriteReq.avgMissLatency::cpu0.data 118438.389569                       # average WriteReq miss latency ((Tick/Count))
system.cpu0.dcache.WriteReq.avgMissLatency::total 118438.389569                       # average WriteReq miss latency ((Tick/Count))
system.cpu0.dcache.WriteReq.mshrHits::cpu0.data            8                       # number of WriteReq MSHR hits (Count)
system.cpu0.dcache.WriteReq.mshrHits::total            8                       # number of WriteReq MSHR hits (Count)
system.cpu0.dcache.WriteReq.mshrMisses::cpu0.data       298953                       # number of WriteReq MSHR misses (Count)
system.cpu0.dcache.WriteReq.mshrMisses::total       298953                       # number of WriteReq MSHR misses (Count)
system.cpu0.dcache.WriteReq.mshrMissLatency::cpu0.data  35258581136                       # number of WriteReq MSHR miss ticks (Tick)
system.cpu0.dcache.WriteReq.mshrMissLatency::total  35258581136                       # number of WriteReq MSHR miss ticks (Tick)
system.cpu0.dcache.WriteReq.mshrMissRate::cpu0.data     0.117229                       # mshr miss rate for WriteReq accesses (Ratio)
system.cpu0.dcache.WriteReq.mshrMissRate::total     0.117229                       # mshr miss rate for WriteReq accesses (Ratio)
system.cpu0.dcache.WriteReq.avgMshrMissLatency::cpu0.data 117940.215137                       # average WriteReq mshr miss latency ((Tick/Count))
system.cpu0.dcache.WriteReq.avgMshrMissLatency::total 117940.215137                       # average WriteReq mshr miss latency ((Tick/Count))
system.cpu0.dcache.power_state.pwrStateResidencyTicks::UNDEFINED  53202035750                       # Cumulative time (in ticks) in various power states (Tick)
system.cpu0.dcache.tags.tagsInUse         1022.779304                       # Average ticks per tags in use ((Tick/Count))
system.cpu0.dcache.tags.totalRefs            14380838                       # Total number of references to valid blocks. (Count)
system.cpu0.dcache.tags.sampledRefs           1068882                       # Sample count of references to valid blocks. (Count)
system.cpu0.dcache.tags.avgRefs             13.454093                       # Average number of references to valid blocks. ((Count/Count))
system.cpu0.dcache.tags.warmupTick             169250                       # The tick when the warmup percentage was hit. (Tick)
system.cpu0.dcache.tags.occupancies::cpu0.data  1022.779304                       # Average occupied blocks per tick, per requestor ((Count/Tick))
system.cpu0.dcache.tags.avgOccs::cpu0.data     0.998808                       # Average percentage of cache occupancy ((Ratio/Tick))
system.cpu0.dcache.tags.avgOccs::total       0.998808                       # Average percentage of cache occupancy ((Ratio/Tick))
system.cpu0.dcache.tags.occupanciesTaskId::1024         1024                       # Occupied blocks per task id (Count)
system.cpu0.dcache.tags.ageTaskId_1024::0          129                       # Occupied blocks per task id, per block age (Count)
system.cpu0.dcache.tags.ageTaskId_1024::1          894                       # Occupied blocks per task id, per block age (Count)
system.cpu0.dcache.tags.ageTaskId_1024::4            1                       # Occupied blocks per task id, per block age (Count)
system.cpu0.dcache.tags.ratioOccsTaskId::1024            1                       # Ratio of occupied blocks and all blocks, per task id (Ratio)
system.cpu0.dcache.tags.tagAccesses          37608248                       # Number of tag accesses (Count)
system.cpu0.dcache.tags.dataAccesses         37608248                       # Number of data accesses (Count)
system.cpu0.dcache.tags.power_state.pwrStateResidencyTicks::UNDEFINED  53202035750                       # Cumulative time (in ticks) in various power states (Tick)
system.cpu0.decode.idleCycles                 2652690                       # Number of cycles decode is idle (Cycle)
system.cpu0.decode.blockedCycles            198873971                       # Number of cycles decode is blocked (Cycle)
system.cpu0.decode.runCycles                  8133645                       # Number of cycles decode is running (Cycle)
system.cpu0.decode.unblockCycles              2471676                       # Number of cycles decode is unblocking (Cycle)
system.cpu0.decode.squashCycles                261711                       # Number of cycles decode is squashing (Cycle)
system.cpu0.decode.branchResolved             2471931                       # Number of times decode resolved a branch (Count)
system.cpu0.decode.branchMispred                 1356                       # Number of times decode detected a branch misprediction (Count)
system.cpu0.decode.decodedInsts              80037020                       # Number of instructions handled by decode (Count)
system.cpu0.decode.squashedInsts                 6530                       # Number of squashed instructions handled by decode (Count)
system.cpu0.dtb_walker_cache.blockedCycles::no_mshrs            0                       # number of cycles access was blocked (Cycle)
system.cpu0.dtb_walker_cache.blockedCycles::no_targets            0                       # number of cycles access was blocked (Cycle)
system.cpu0.dtb_walker_cache.blockedCauses::no_mshrs            0                       # number of times access was blocked (Count)
system.cpu0.dtb_walker_cache.blockedCauses::no_targets            0                       # number of times access was blocked (Count)
system.cpu0.dtb_walker_cache.avgBlocked::no_mshrs          nan                       # average number of cycles each access was blocked ((Cycle/Count))
system.cpu0.dtb_walker_cache.avgBlocked::no_targets          nan                       # average number of cycles each access was blocked ((Cycle/Count))
system.cpu0.dtb_walker_cache.replacements            0                       # number of replacements (Count)
system.cpu0.dtb_walker_cache.power_state.pwrStateResidencyTicks::UNDEFINED  53202035750                       # Cumulative time (in ticks) in various power states (Tick)
system.cpu0.dtb_walker_cache.tags.tagsInUse            0                       # Average ticks per tags in use ((Tick/Count))
system.cpu0.dtb_walker_cache.tags.totalRefs            0                       # Total number of references to valid blocks. (Count)
system.cpu0.dtb_walker_cache.tags.sampledRefs            0                       # Sample count of references to valid blocks. (Count)
system.cpu0.dtb_walker_cache.tags.avgRefs          nan                       # Average number of references to valid blocks. ((Count/Count))
system.cpu0.dtb_walker_cache.tags.warmupTick            0                       # The tick when the warmup percentage was hit. (Tick)
system.cpu0.dtb_walker_cache.tags.tagAccesses            0                       # Number of tag accesses (Count)
system.cpu0.dtb_walker_cache.tags.dataAccesses            0                       # Number of data accesses (Count)
system.cpu0.dtb_walker_cache.tags.power_state.pwrStateResidencyTicks::UNDEFINED  53202035750                       # Cumulative time (in ticks) in various power states (Tick)
system.cpu0.fetch.icacheStallCycles           5566672                       # Number of cycles fetch is stalled on an Icache miss (Cycle)
system.cpu0.fetch.insts                      43907765                       # Number of instructions fetch has processed (Count)
system.cpu0.fetch.branches                    5882244                       # Number of branches that fetch encountered (Count)
system.cpu0.fetch.predictedBranches           2750707                       # Number of branches that fetch has predicted taken (Count)
system.cpu0.fetch.cycles                    206553596                       # Number of cycles fetch has run and was not squashing or blocked (Cycle)
system.cpu0.fetch.squashCycles                 526094                       # Number of cycles fetch has spent squashing (Cycle)
system.cpu0.fetch.miscStallCycles                1211                       # Number of cycles fetch has spent waiting on interrupts, or bad addresses, or out of MSHRs (Cycle)
system.cpu0.fetch.pendingTrapStallCycles         9087                       # Number of stall cycles due to pending traps (Cycle)
system.cpu0.fetch.icacheWaitRetryStallCycles           80                       # Number of stall cycles due to full MSHR (Cycle)
system.cpu0.fetch.cacheLines                  5386341                       # Number of cache lines fetched (Count)
system.cpu0.fetch.icacheSquashes                 3349                       # Number of outstanding Icache misses that were squashed (Count)
system.cpu0.fetch.nisnDist::samples         212393693                       # Number of instructions fetched each cycle (Total) (Count)
system.cpu0.fetch.nisnDist::mean             0.423777                       # Number of instructions fetched each cycle (Total) (Count)
system.cpu0.fetch.nisnDist::stdev            1.699909                       # Number of instructions fetched each cycle (Total) (Count)
system.cpu0.fetch.nisnDist::underflows              0      0.00%      0.00% # Number of instructions fetched each cycle (Total) (Count)
system.cpu0.fetch.nisnDist::0               198593474     93.50%     93.50% # Number of instructions fetched each cycle (Total) (Count)
system.cpu0.fetch.nisnDist::1                  419246      0.20%     93.70% # Number of instructions fetched each cycle (Total) (Count)
system.cpu0.fetch.nisnDist::2                  779560      0.37%     94.07% # Number of instructions fetched each cycle (Total) (Count)
system.cpu0.fetch.nisnDist::3                 1080421      0.51%     94.58% # Number of instructions fetched each cycle (Total) (Count)
system.cpu0.fetch.nisnDist::4                  562755      0.26%     94.84% # Number of instructions fetched each cycle (Total) (Count)
system.cpu0.fetch.nisnDist::5                  392206      0.18%     95.03% # Number of instructions fetched each cycle (Total) (Count)
system.cpu0.fetch.nisnDist::6                 1441966      0.68%     95.70% # Number of instructions fetched each cycle (Total) (Count)
system.cpu0.fetch.nisnDist::7                 1068402      0.50%     96.21% # Number of instructions fetched each cycle (Total) (Count)
system.cpu0.fetch.nisnDist::8                 8055663      3.79%    100.00% # Number of instructions fetched each cycle (Total) (Count)
system.cpu0.fetch.nisnDist::overflows               0      0.00%    100.00% # Number of instructions fetched each cycle (Total) (Count)
system.cpu0.fetch.nisnDist::min_value               0                       # Number of instructions fetched each cycle (Total) (Count)
system.cpu0.fetch.nisnDist::max_value               8                       # Number of instructions fetched each cycle (Total) (Count)
system.cpu0.fetch.nisnDist::total           212393693                       # Number of instructions fetched each cycle (Total) (Count)
system.cpu0.fetch.branchRate                 0.027641                       # Number of branch fetches per cycle (Ratio)
system.cpu0.fetch.rate                       0.206326                       # Number of inst fetches per cycle ((Count/Cycle))
system.cpu0.icache.demandHits::cpu0.inst      5382863                       # number of demand (read+write) hits (Count)
system.cpu0.icache.demandHits::total          5382863                       # number of demand (read+write) hits (Count)
system.cpu0.icache.overallHits::cpu0.inst      5382863                       # number of overall hits (Count)
system.cpu0.icache.overallHits::total         5382863                       # number of overall hits (Count)
system.cpu0.icache.demandMisses::cpu0.inst         3478                       # number of demand (read+write) misses (Count)
system.cpu0.icache.demandMisses::total           3478                       # number of demand (read+write) misses (Count)
system.cpu0.icache.overallMisses::cpu0.inst         3478                       # number of overall misses (Count)
system.cpu0.icache.overallMisses::total          3478                       # number of overall misses (Count)
system.cpu0.icache.demandMissLatency::cpu0.inst    234736749                       # number of demand (read+write) miss ticks (Tick)
system.cpu0.icache.demandMissLatency::total    234736749                       # number of demand (read+write) miss ticks (Tick)
system.cpu0.icache.overallMissLatency::cpu0.inst    234736749                       # number of overall miss ticks (Tick)
system.cpu0.icache.overallMissLatency::total    234736749                       # number of overall miss ticks (Tick)
system.cpu0.icache.demandAccesses::cpu0.inst      5386341                       # number of demand (read+write) accesses (Count)
system.cpu0.icache.demandAccesses::total      5386341                       # number of demand (read+write) accesses (Count)
system.cpu0.icache.overallAccesses::cpu0.inst      5386341                       # number of overall (read+write) accesses (Count)
system.cpu0.icache.overallAccesses::total      5386341                       # number of overall (read+write) accesses (Count)
system.cpu0.icache.demandMissRate::cpu0.inst     0.000646                       # miss rate for demand accesses (Ratio)
system.cpu0.icache.demandMissRate::total     0.000646                       # miss rate for demand accesses (Ratio)
system.cpu0.icache.overallMissRate::cpu0.inst     0.000646                       # miss rate for overall accesses (Ratio)
system.cpu0.icache.overallMissRate::total     0.000646                       # miss rate for overall accesses (Ratio)
system.cpu0.icache.demandAvgMissLatency::cpu0.inst 67491.877228                       # average overall miss latency in ticks ((Tick/Count))
system.cpu0.icache.demandAvgMissLatency::total 67491.877228                       # average overall miss latency in ticks ((Tick/Count))
system.cpu0.icache.overallAvgMissLatency::cpu0.inst 67491.877228                       # average overall miss latency ((Tick/Count))
system.cpu0.icache.overallAvgMissLatency::total 67491.877228                       # average overall miss latency ((Tick/Count))
system.cpu0.icache.blockedCycles::no_mshrs          874                       # number of cycles access was blocked (Cycle)
system.cpu0.icache.blockedCycles::no_targets            0                       # number of cycles access was blocked (Cycle)
system.cpu0.icache.blockedCauses::no_mshrs           16                       # number of times access was blocked (Count)
system.cpu0.icache.blockedCauses::no_targets            0                       # number of times access was blocked (Count)
system.cpu0.icache.avgBlocked::no_mshrs     54.625000                       # average number of cycles each access was blocked ((Cycle/Count))
system.cpu0.icache.avgBlocked::no_targets          nan                       # average number of cycles each access was blocked ((Cycle/Count))
system.cpu0.icache.writebacks::writebacks         2213                       # number of writebacks (Count)
system.cpu0.icache.writebacks::total             2213                       # number of writebacks (Count)
system.cpu0.icache.demandMshrHits::cpu0.inst          742                       # number of demand (read+write) MSHR hits (Count)
system.cpu0.icache.demandMshrHits::total          742                       # number of demand (read+write) MSHR hits (Count)
system.cpu0.icache.overallMshrHits::cpu0.inst          742                       # number of overall MSHR hits (Count)
system.cpu0.icache.overallMshrHits::total          742                       # number of overall MSHR hits (Count)
system.cpu0.icache.demandMshrMisses::cpu0.inst         2736                       # number of demand (read+write) MSHR misses (Count)
system.cpu0.icache.demandMshrMisses::total         2736                       # number of demand (read+write) MSHR misses (Count)
system.cpu0.icache.overallMshrMisses::cpu0.inst         2736                       # number of overall MSHR misses (Count)
system.cpu0.icache.overallMshrMisses::total         2736                       # number of overall MSHR misses (Count)
system.cpu0.icache.demandMshrMissLatency::cpu0.inst    185212000                       # number of demand (read+write) MSHR miss ticks (Tick)
system.cpu0.icache.demandMshrMissLatency::total    185212000                       # number of demand (read+write) MSHR miss ticks (Tick)
system.cpu0.icache.overallMshrMissLatency::cpu0.inst    185212000                       # number of overall MSHR miss ticks (Tick)
system.cpu0.icache.overallMshrMissLatency::total    185212000                       # number of overall MSHR miss ticks (Tick)
system.cpu0.icache.demandMshrMissRate::cpu0.inst     0.000508                       # mshr miss ratio for demand accesses (Ratio)
system.cpu0.icache.demandMshrMissRate::total     0.000508                       # mshr miss ratio for demand accesses (Ratio)
system.cpu0.icache.overallMshrMissRate::cpu0.inst     0.000508                       # mshr miss ratio for overall accesses (Ratio)
system.cpu0.icache.overallMshrMissRate::total     0.000508                       # mshr miss ratio for overall accesses (Ratio)
system.cpu0.icache.demandAvgMshrMissLatency::cpu0.inst 67694.444444                       # average overall mshr miss latency ((Tick/Count))
system.cpu0.icache.demandAvgMshrMissLatency::total 67694.444444                       # average overall mshr miss latency ((Tick/Count))
system.cpu0.icache.overallAvgMshrMissLatency::cpu0.inst 67694.444444                       # average overall mshr miss latency ((Tick/Count))
system.cpu0.icache.overallAvgMshrMissLatency::total 67694.444444                       # average overall mshr miss latency ((Tick/Count))
system.cpu0.icache.replacements                  2213                       # number of replacements (Count)
system.cpu0.icache.ReadReq.hits::cpu0.inst      5382863                       # number of ReadReq hits (Count)
system.cpu0.icache.ReadReq.hits::total        5382863                       # number of ReadReq hits (Count)
system.cpu0.icache.ReadReq.misses::cpu0.inst         3478                       # number of ReadReq misses (Count)
system.cpu0.icache.ReadReq.misses::total         3478                       # number of ReadReq misses (Count)
system.cpu0.icache.ReadReq.missLatency::cpu0.inst    234736749                       # number of ReadReq miss ticks (Tick)
system.cpu0.icache.ReadReq.missLatency::total    234736749                       # number of ReadReq miss ticks (Tick)
system.cpu0.icache.ReadReq.accesses::cpu0.inst      5386341                       # number of ReadReq accesses(hits+misses) (Count)
system.cpu0.icache.ReadReq.accesses::total      5386341                       # number of ReadReq accesses(hits+misses) (Count)
system.cpu0.icache.ReadReq.missRate::cpu0.inst     0.000646                       # miss rate for ReadReq accesses (Ratio)
system.cpu0.icache.ReadReq.missRate::total     0.000646                       # miss rate for ReadReq accesses (Ratio)
system.cpu0.icache.ReadReq.avgMissLatency::cpu0.inst 67491.877228                       # average ReadReq miss latency ((Tick/Count))
system.cpu0.icache.ReadReq.avgMissLatency::total 67491.877228                       # average ReadReq miss latency ((Tick/Count))
system.cpu0.icache.ReadReq.mshrHits::cpu0.inst          742                       # number of ReadReq MSHR hits (Count)
system.cpu0.icache.ReadReq.mshrHits::total          742                       # number of ReadReq MSHR hits (Count)
system.cpu0.icache.ReadReq.mshrMisses::cpu0.inst         2736                       # number of ReadReq MSHR misses (Count)
system.cpu0.icache.ReadReq.mshrMisses::total         2736                       # number of ReadReq MSHR misses (Count)
system.cpu0.icache.ReadReq.mshrMissLatency::cpu0.inst    185212000                       # number of ReadReq MSHR miss ticks (Tick)
system.cpu0.icache.ReadReq.mshrMissLatency::total    185212000                       # number of ReadReq MSHR miss ticks (Tick)
system.cpu0.icache.ReadReq.mshrMissRate::cpu0.inst     0.000508                       # mshr miss rate for ReadReq accesses (Ratio)
system.cpu0.icache.ReadReq.mshrMissRate::total     0.000508                       # mshr miss rate for ReadReq accesses (Ratio)
system.cpu0.icache.ReadReq.avgMshrMissLatency::cpu0.inst 67694.444444                       # average ReadReq mshr miss latency ((Tick/Count))
system.cpu0.icache.ReadReq.avgMshrMissLatency::total 67694.444444                       # average ReadReq mshr miss latency ((Tick/Count))
system.cpu0.icache.power_state.pwrStateResidencyTicks::UNDEFINED  53202035750                       # Cumulative time (in ticks) in various power states (Tick)
system.cpu0.icache.tags.tagsInUse          509.205237                       # Average ticks per tags in use ((Tick/Count))
system.cpu0.icache.tags.totalRefs             5385598                       # Total number of references to valid blocks. (Count)
system.cpu0.icache.tags.sampledRefs              2735                       # Sample count of references to valid blocks. (Count)
system.cpu0.icache.tags.avgRefs           1969.140037                       # Average number of references to valid blocks. ((Count/Count))
system.cpu0.icache.tags.warmupTick              85250                       # The tick when the warmup percentage was hit. (Tick)
system.cpu0.icache.tags.occupancies::cpu0.inst   509.205237                       # Average occupied blocks per tick, per requestor ((Count/Tick))
system.cpu0.icache.tags.avgOccs::cpu0.inst     0.994541                       # Average percentage of cache occupancy ((Ratio/Tick))
system.cpu0.icache.tags.avgOccs::total       0.994541                       # Average percentage of cache occupancy ((Ratio/Tick))
system.cpu0.icache.tags.occupanciesTaskId::1024          512                       # Occupied blocks per task id (Count)
system.cpu0.icache.tags.ageTaskId_1024::0          107                       # Occupied blocks per task id, per block age (Count)
system.cpu0.icache.tags.ageTaskId_1024::1           74                       # Occupied blocks per task id, per block age (Count)
system.cpu0.icache.tags.ageTaskId_1024::4          331                       # Occupied blocks per task id, per block age (Count)
system.cpu0.icache.tags.ratioOccsTaskId::1024            1                       # Ratio of occupied blocks and all blocks, per task id (Ratio)
system.cpu0.icache.tags.tagAccesses          10775417                       # Number of tag accesses (Count)
system.cpu0.icache.tags.dataAccesses         10775417                       # Number of data accesses (Count)
system.cpu0.icache.tags.power_state.pwrStateResidencyTicks::UNDEFINED  53202035750                       # Cumulative time (in ticks) in various power states (Tick)
system.cpu0.iew.idleCycles                          0                       # Number of cycles IEW is idle (Cycle)
system.cpu0.iew.squashCycles                   261711                       # Number of cycles IEW is squashing (Cycle)
system.cpu0.iew.blockCycles                  38352064                       # Number of cycles IEW is blocking (Cycle)
system.cpu0.iew.unblockCycles                15966954                       # Number of cycles IEW is unblocking (Cycle)
system.cpu0.iew.dispatchedInsts              77302996                       # Number of instructions dispatched to IQ (Count)
system.cpu0.iew.dispSquashedInsts                1063                       # Number of squashed instructions skipped by dispatch (Count)
system.cpu0.iew.dispLoadInsts                15756327                       # Number of dispatched load instructions (Count)
system.cpu0.iew.dispStoreInsts               10823247                       # Number of dispatched store instructions (Count)
system.cpu0.iew.dispNonSpecInsts                  580                       # Number of dispatched non-speculative instructions (Count)
system.cpu0.iew.iqFullEvents                     5360                       # Number of times the IQ has become full, causing a stall (Count)
system.cpu0.iew.lsqFullEvents                15884823                       # Number of times the LSQ has become full, causing a stall (Count)
system.cpu0.iew.memOrderViolationEvents           323                       # Number of memory order violations (Count)
system.cpu0.iew.predictedTakenIncorrect          2790                       # Number of branches that were predicted taken incorrectly (Count)
system.cpu0.iew.predictedNotTakenIncorrect         7549                       # Number of branches that were predicted not taken incorrectly (Count)
system.cpu0.iew.branchMispredicts               10339                       # Number of branch mispredicts detected at execute (Count)
system.cpu0.iew.instsToCommit                77141499                       # Cumulative count of insts sent to commit (Count)
[...]
system.membus.snoopFanout::mean                     0                       # Request fanout histogram (Count)
system.membus.snoopFanout::stdev                    0                       # Request fanout histogram (Count)
system.membus.snoopFanout::underflows               0      0.00%      0.00% # Request fanout histogram (Count)
system.membus.snoopFanout::0                  5882074    100.00%    100.00% # Request fanout histogram (Count)
system.membus.snoopFanout::1                        0      0.00%    100.00% # Request fanout histogram (Count)
system.membus.snoopFanout::overflows                0      0.00%    100.00% # Request fanout histogram (Count)
system.membus.snoopFanout::min_value                0                       # Request fanout histogram (Count)
system.membus.snoopFanout::max_value                0                       # Request fanout histogram (Count)
system.membus.snoopFanout::total              5882074                       # Request fanout histogram (Count)
system.membus.power_state.pwrStateResidencyTicks::UNDEFINED  53202035750                       # Cumulative time (in ticks) in various power states (Tick)
system.membus.reqLayer16.occupancy        11751782390                       # Layer occupancy (ticks) (Tick)
system.membus.reqLayer16.utilization              0.2                       # Layer utilization (Ratio)
system.membus.reqLayer17.occupancy        11750890967                       # Layer occupancy (ticks) (Tick)
system.membus.reqLayer17.utilization              0.2                       # Layer utilization (Ratio)
system.membus.respLayer1.occupancy        29631622329                       # Layer occupancy (ticks) (Tick)
system.membus.respLayer1.utilization              0.6                       # Layer utilization (Ratio)
system.membus.snoop_filter.totRequests       11718368                       # Total number of requests made to the snoop filter. (Count)
system.membus.snoop_filter.hitSingleRequests      5842661                       # Number of requests hitting in the snoop filter with a single holder of the requested data. (Count)
system.membus.snoop_filter.hitMultiRequests            0                       # Number of requests hitting in the snoop filter with multiple (>1) holders of the requested data. (Count)
system.membus.snoop_filter.totSnoops                0                       # Total number of snoops made to the snoop filter. (Count)
system.membus.snoop_filter.hitSingleSnoops            0                       # Number of snoops hitting in the snoop filter with a single holder of the requested data. (Count)
system.membus.snoop_filter.hitMultiSnoops            0                       # Number of snoops hitting in the snoop filter with multiple (>1) holders of the requested data. (Count)
system.tol2bus.transDist::ReadResp            3510200                       # Transaction distribution (Count)
system.tol2bus.transDist::WritebackDirty      5003749                       # Transaction distribution (Count)
system.tol2bus.transDist::WritebackClean         2230                       # Transaction distribution (Count)
system.tol2bus.transDist::CleanEvict          6720727                       # Transaction distribution (Count)
system.tol2bus.transDist::UpgradeReq              295                       # Transaction distribution (Count)
system.tol2bus.transDist::UpgradeResp             295                       # Transaction distribution (Count)
system.tol2bus.transDist::ReadExReq           2377618                       # Transaction distribution (Count)
system.tol2bus.transDist::ReadExResp          2377618                       # Transaction distribution (Count)
system.tol2bus.transDist::ReadCleanReq           3352                       # Transaction distribution (Count)
system.tol2bus.transDist::ReadSharedReq       3506849                       # Transaction distribution (Count)
system.tol2bus.pktCount_system.cpu0.icache.mem_side_port::system.l2.cpu_side_port         7676                       # Packet count per connected requestor and responder (Count)
system.tol2bus.pktCount_system.cpu0.dcache.mem_side_port::system.l2.cpu_side_port      3204431                       # Packet count per connected requestor and responder (Count)
system.tol2bus.pktCount_system.cpu1.icache.mem_side_port::system.l2.cpu_side_port          288                       # Packet count per connected requestor and responder (Count)
system.tol2bus.pktCount_system.cpu1.dcache.mem_side_port::system.l2.cpu_side_port      2062753                       # Packet count per connected requestor and responder (Count)
system.tol2bus.pktCount_system.cpu2.icache.mem_side_port::system.l2.cpu_side_port          155                       # Packet count per connected requestor and responder (Count)
system.tol2bus.pktCount_system.cpu2.dcache.mem_side_port::system.l2.cpu_side_port      2062444                       # Packet count per connected requestor and responder (Count)
system.tol2bus.pktCount_system.cpu3.icache.mem_side_port::system.l2.cpu_side_port          155                       # Packet count per connected requestor and responder (Count)
system.tol2bus.pktCount_system.cpu3.dcache.mem_side_port::system.l2.cpu_side_port      2062447                       # Packet count per connected requestor and responder (Count)
system.tol2bus.pktCount_system.cpu4.icache.mem_side_port::system.l2.cpu_side_port          159                       # Packet count per connected requestor and responder (Count)
system.tol2bus.pktCount_system.cpu4.dcache.mem_side_port::system.l2.cpu_side_port      2062437                       # Packet count per connected requestor and responder (Count)
system.tol2bus.pktCount_system.cpu5.icache.mem_side_port::system.l2.cpu_side_port          159                       # Packet count per connected requestor and responder (Count)
system.tol2bus.pktCount_system.cpu5.dcache.mem_side_port::system.l2.cpu_side_port      2062458                       # Packet count per connected requestor and responder (Count)
system.tol2bus.pktCount_system.cpu6.icache.mem_side_port::system.l2.cpu_side_port          151                       # Packet count per connected requestor and responder (Count)
system.tol2bus.pktCount_system.cpu6.dcache.mem_side_port::system.l2.cpu_side_port      2062412                       # Packet count per connected requestor and responder (Count)
system.tol2bus.pktCount_system.cpu7.icache.mem_side_port::system.l2.cpu_side_port          156                       # Packet count per connected requestor and responder (Count)
system.tol2bus.pktCount_system.cpu7.dcache.mem_side_port::system.l2.cpu_side_port      2062428                       # Packet count per connected requestor and responder (Count)
system.tol2bus.pktCount::total               17650709                       # Packet count per connected requestor and responder (Count)
system.tol2bus.pktSize_system.cpu0.icache.mem_side_port::system.l2.cpu_side_port       316160                       # Cumulative packet size per connected requestor and responder (Byte)
system.tol2bus.pktSize_system.cpu0.dcache.mem_side_port::system.l2.cpu_side_port     88506240                       # Cumulative packet size per connected requestor and responder (Byte)
system.tol2bus.pktSize_system.cpu1.icache.mem_side_port::system.l2.cpu_side_port         9280                       # Cumulative packet size per connected requestor and responder (Byte)
system.tol2bus.pktSize_system.cpu1.dcache.mem_side_port::system.l2.cpu_side_port     64016384                       # Cumulative packet size per connected requestor and responder (Byte)
system.tol2bus.pktSize_system.cpu2.icache.mem_side_port::system.l2.cpu_side_port         4928                       # Cumulative packet size per connected requestor and responder (Byte)
system.tol2bus.pktSize_system.cpu2.dcache.mem_side_port::system.l2.cpu_side_port     64010176                       # Cumulative packet size per connected requestor and responder (Byte)
system.tol2bus.pktSize_system.cpu3.icache.mem_side_port::system.l2.cpu_side_port         4928                       # Cumulative packet size per connected requestor and responder (Byte)
system.tol2bus.pktSize_system.cpu3.dcache.mem_side_port::system.l2.cpu_side_port     64009920                       # Cumulative packet size per connected requestor and responder (Byte)
system.tol2bus.pktSize_system.cpu4.icache.mem_side_port::system.l2.cpu_side_port         4992                       # Cumulative packet size per connected requestor and responder (Byte)
system.tol2bus.pktSize_system.cpu4.dcache.mem_side_port::system.l2.cpu_side_port     64009920                       # Cumulative packet size per connected requestor and responder (Byte)
system.tol2bus.pktSize_system.cpu5.icache.mem_side_port::system.l2.cpu_side_port         4992                       # Cumulative packet size per connected requestor and responder (Byte)
system.tol2bus.pktSize_system.cpu5.dcache.mem_side_port::system.l2.cpu_side_port     64009984                       # Cumulative packet size per connected requestor and responder (Byte)
system.tol2bus.pktSize_system.cpu6.icache.mem_side_port::system.l2.cpu_side_port         4736                       # Cumulative packet size per connected requestor and responder (Byte)
system.tol2bus.pktSize_system.cpu6.dcache.mem_side_port::system.l2.cpu_side_port     64008896                       # Cumulative packet size per connected requestor and responder (Byte)
system.tol2bus.pktSize_system.cpu7.icache.mem_side_port::system.l2.cpu_side_port         4992                       # Cumulative packet size per connected requestor and responder (Byte)
system.tol2bus.pktSize_system.cpu7.dcache.mem_side_port::system.l2.cpu_side_port     64009344                       # Cumulative packet size per connected requestor and responder (Byte)
system.tol2bus.pktSize::total               536935872                       # Cumulative packet size per connected requestor and responder (Byte)
system.tol2bus.snoops                         5852224                       # Total snoops (Count)
system.tol2bus.snoopTraffic                 160267136                       # Total snoop traffic (Byte)
system.tol2bus.snoopFanout::samples          13140632                       # Request fanout histogram (Count)
system.tol2bus.snoopFanout::mean             0.002616                       # Request fanout histogram (Count)
system.tol2bus.snoopFanout::stdev            0.082772                       # Request fanout histogram (Count)
system.tol2bus.snoopFanout::underflows              0      0.00%      0.00% # Request fanout histogram (Count)
system.tol2bus.snoopFanout::0                13115703     99.81%     99.81% # Request fanout histogram (Count)
system.tol2bus.snoopFanout::1                   22494      0.17%     99.98% # Request fanout histogram (Count)
system.tol2bus.snoopFanout::2                     474      0.00%     99.99% # Request fanout histogram (Count)
system.tol2bus.snoopFanout::3                     287      0.00%     99.99% # Request fanout histogram (Count)
system.tol2bus.snoopFanout::4                     285      0.00%     99.99% # Request fanout histogram (Count)
system.tol2bus.snoopFanout::5                     287      0.00%     99.99% # Request fanout histogram (Count)
system.tol2bus.snoopFanout::6                     300      0.00%     99.99% # Request fanout histogram (Count)
system.tol2bus.snoopFanout::7                     718      0.01%    100.00% # Request fanout histogram (Count)
system.tol2bus.snoopFanout::8                      82      0.00%    100.00% # Request fanout histogram (Count)
system.tol2bus.snoopFanout::9                       1      0.00%    100.00% # Request fanout histogram (Count)
system.tol2bus.snoopFanout::10                      1      0.00%    100.00% # Request fanout histogram (Count)
system.tol2bus.snoopFanout::11                      0      0.00%    100.00% # Request fanout histogram (Count)
system.tol2bus.snoopFanout::12                      0      0.00%    100.00% # Request fanout histogram (Count)
system.tol2bus.snoopFanout::13                      0      0.00%    100.00% # Request fanout histogram (Count)
system.tol2bus.snoopFanout::14                      0      0.00%    100.00% # Request fanout histogram (Count)
system.tol2bus.snoopFanout::15                      0      0.00%    100.00% # Request fanout histogram (Count)
system.tol2bus.snoopFanout::16                      0      0.00%    100.00% # Request fanout histogram (Count)
system.tol2bus.snoopFanout::17                      0      0.00%    100.00% # Request fanout histogram (Count)
system.tol2bus.snoopFanout::18                      0      0.00%    100.00% # Request fanout histogram (Count)
system.tol2bus.snoopFanout::19                      0      0.00%    100.00% # Request fanout histogram (Count)
system.tol2bus.snoopFanout::20                      0      0.00%    100.00% # Request fanout histogram (Count)
system.tol2bus.snoopFanout::21                      0      0.00%    100.00% # Request fanout histogram (Count)
system.tol2bus.snoopFanout::22                      0      0.00%    100.00% # Request fanout histogram (Count)
system.tol2bus.snoopFanout::23                      0      0.00%    100.00% # Request fanout histogram (Count)
system.tol2bus.snoopFanout::24                      0      0.00%    100.00% # Request fanout histogram (Count)
system.tol2bus.snoopFanout::25                      0      0.00%    100.00% # Request fanout histogram (Count)
system.tol2bus.snoopFanout::26                      0      0.00%    100.00% # Request fanout histogram (Count)
system.tol2bus.snoopFanout::27                      0      0.00%    100.00% # Request fanout histogram (Count)
system.tol2bus.snoopFanout::28                      0      0.00%    100.00% # Request fanout histogram (Count)
system.tol2bus.snoopFanout::29                      0      0.00%    100.00% # Request fanout histogram (Count)
system.tol2bus.snoopFanout::30                      0      0.00%    100.00% # Request fanout histogram (Count)
system.tol2bus.snoopFanout::31                      0      0.00%    100.00% # Request fanout histogram (Count)
system.tol2bus.snoopFanout::32                      0      0.00%    100.00% # Request fanout histogram (Count)
system.tol2bus.snoopFanout::overflows               0      0.00%    100.00% # Request fanout histogram (Count)
system.tol2bus.snoopFanout::min_value               0                       # Request fanout histogram (Count)
system.tol2bus.snoopFanout::max_value              10                       # Request fanout histogram (Count)
system.tol2bus.snoopFanout::total            13140632                       # Request fanout histogram (Count)
system.tol2bus.power_state.pwrStateResidencyTicks::UNDEFINED  53202035750                       # Cumulative time (in ticks) in various power states (Tick)
system.tol2bus.reqLayer0.occupancy         5687247460                       # Layer occupancy (ticks) (Tick)
system.tol2bus.reqLayer0.utilization              0.1                       # Layer utilization (Ratio)
system.tol2bus.respLayer0.occupancy           2053209                       # Layer occupancy (ticks) (Tick)
system.tol2bus.respLayer0.utilization             0.0                       # Layer utilization (Ratio)
system.tol2bus.respLayer1.occupancy         801689930                       # Layer occupancy (ticks) (Tick)
system.tol2bus.respLayer1.utilization             0.0                       # Layer utilization (Ratio)
system.tol2bus.respLayer12.occupancy            65876                       # Layer occupancy (ticks) (Tick)
system.tol2bus.respLayer12.utilization            0.0                       # Layer utilization (Ratio)
system.tol2bus.respLayer13.occupancy        515964363                       # Layer occupancy (ticks) (Tick)
system.tol2bus.respLayer13.utilization            0.0                       # Layer utilization (Ratio)
system.tol2bus.respLayer16.occupancy            67397                       # Layer occupancy (ticks) (Tick)
system.tol2bus.respLayer16.utilization            0.0                       # Layer utilization (Ratio)
system.tol2bus.respLayer17.occupancy        515960369                       # Layer occupancy (ticks) (Tick)
system.tol2bus.respLayer17.utilization            0.0                       # Layer utilization (Ratio)
system.tol2bus.respLayer20.occupancy            67151                       # Layer occupancy (ticks) (Tick)
system.tol2bus.respLayer20.utilization            0.0                       # Layer utilization (Ratio)
system.tol2bus.respLayer21.occupancy        515965893                       # Layer occupancy (ticks) (Tick)
system.tol2bus.respLayer21.utilization            0.0                       # Layer utilization (Ratio)
system.tol2bus.respLayer24.occupancy            65149                       # Layer occupancy (ticks) (Tick)
system.tol2bus.respLayer24.utilization            0.0                       # Layer utilization (Ratio)
system.tol2bus.respLayer25.occupancy        515958340                       # Layer occupancy (ticks) (Tick)
system.tol2bus.respLayer25.utilization            0.0                       # Layer utilization (Ratio)
system.tol2bus.respLayer28.occupancy            62938                       # Layer occupancy (ticks) (Tick)
system.tol2bus.respLayer28.utilization            0.0                       # Layer utilization (Ratio)
system.tol2bus.respLayer29.occupancy        515958824                       # Layer occupancy (ticks) (Tick)
system.tol2bus.respLayer29.utilization            0.0                       # Layer utilization (Ratio)
system.tol2bus.respLayer4.occupancy            114397                       # Layer occupancy (ticks) (Tick)
system.tol2bus.respLayer4.utilization             0.0                       # Layer utilization (Ratio)
system.tol2bus.respLayer5.occupancy         516050575                       # Layer occupancy (ticks) (Tick)
system.tol2bus.respLayer5.utilization             0.0                       # Layer utilization (Ratio)
system.tol2bus.respLayer8.occupancy             68372                       # Layer occupancy (ticks) (Tick)
system.tol2bus.respLayer8.utilization             0.0                       # Layer utilization (Ratio)
system.tol2bus.respLayer9.occupancy         515962624                       # Layer occupancy (ticks) (Tick)
system.tol2bus.respLayer9.utilization             0.0                       # Layer utilization (Ratio)
system.tol2bus.snoop_filter.totRequests      14759140                       # Total number of requests made to the snoop filter. (Count)
system.tol2bus.snoop_filter.hitSingleRequests      7468154                       # Number of requests hitting in the snoop filter with a single holder of the requested data. (Count)
system.tol2bus.snoop_filter.hitMultiRequests        11197                       # Number of requests hitting in the snoop filter with multiple (>1) holders of the requested data. (Count)
system.tol2bus.snoop_filter.totSnoops           13718                       # Total number of snoops made to the snoop filter. (Count)
system.tol2bus.snoop_filter.hitSingleSnoops        13373                       # Number of snoops hitting in the snoop filter with a single holder of the requested data. (Count)
system.tol2bus.snoop_filter.hitMultiSnoops          345                       # Number of snoops hitting in the snoop filter with multiple (>1) holders of the requested data. (Count)
system.voltage_domain.voltage                       1                       # Voltage in Volts (Volt)
system.workload.inst.arm                            0                       # number of arm instructions executed (Count)
system.workload.inst.quiesce                        0                       # number of quiesce instructions executed (Count)

---------- End Simulation Statistics   ----------
