Global frequency set at 1000000000000 ticks per second
gem5 Simulator System.  https://www.gem5.org
gem5 is copyrighted software; use the --copyright option for details.

gem5 version 22.0.0.1
gem5 compiled Jul 25 2022 13:56:51
gem5 started Aug 22 2022 14:31:51
gem5 executing on swsoc4, pid 11631
command line: ../gem5/build/X86/gem5.opt --outdir=./result/HBM_compare/test7/8channel se.py --cpu-type X86O3CPU -n 1 --cpu-clock 4GHz --num-cpus 2 --mem-type HBM_2000_4H_1x64 --mem-channels 8 --caches --l2cache --cmd ./workload/stream_strcpy_MP.1M

info: Standard input is not a terminal, disabling listeners.
**** REAL SIMULATION ****
-------------------------------------------------------------
STREAM version $Revision: 5.10 $
-------------------------------------------------------------
This system uses 8 bytes per array element.
-------------------------------------------------------------
Array size = 1000000 (elements), Offset = 0 (elements)
Memory per array = 7.6 MiB (= 0.0 GiB).
Total memory required = 22.9 MiB (= 0.0 GiB).
Each kernel will be executed 4 times.
 The *best* time for each kernel (excluding the first iteration)
 will be used to compute the reported bandwidth.
-------------------------------------------------------------
Number of Threads requested = 2
Number of Threads counted = 2
-------------------------------------------------------------
Your clock granularity/precision appears to be 1 microseconds.
Each test below will take on the order of 5751 microseconds.
   (= 5751 clock ticks)
Increase the size of the arrays if this shows that
you are not getting at least 20 clock ticks per test.
-------------------------------------------------------------
WARNING -- The above is only a rough guideline.
For best results, please be sure you know the
precision of your system timer.
-------------------------------------------------------------
Function    Best Rate MB/s  Avg time     Min time     Max time
Copy:            2068.5     0.007744     0.007735     0.007755
Scale:           3004.7     0.005326     0.005325     0.005327
Add:             4450.2     0.005394     0.005393     0.005394
Triad:           4522.4     0.005327     0.005307     0.005338
-------------------------------------------------------------
Solution Validates: avg error less than 1.000000e-13 on all three arrays
-------------------------------------------------------------
Exiting @ tick 133638169750 because exiting with last active thread context
