
---------- Begin Simulation Statistics ----------
simSeconds                                   0.248575                       # Number of seconds simulated (Second)
simTicks                                 248575158250                       # Number of ticks simulated (Tick)
finalTick                                248575158250                       # Number of ticks from beginning of simulation (restored from checkpoints and never reset) (Tick)
simFreq                                  1000000000000                       # The number of ticks per simulated second ((Tick/Second))
hostSeconds                                   1759.89                       # Real time elapsed on the host (Second)
hostTickRate                                141244677                       # The number of ticks simulated per host second (ticks/s) ((Tick/Second))
hostMemory                                    7680260                       # Number of bytes of host memory used (Byte)
simInsts                                     90028727                       # Number of instructions simulated (Count)
simOps                                      167528960                       # Number of ops (including micro ops) simulated (Count)
hostInstRate                                    51156                       # Simulator instruction rate (inst/s) ((Count/Second))
hostOpRate                                      95193                       # Simulator op (including micro ops) rate (op/s) ((Count/Second))
system.clk_domain.clock                          1000                       # Clock period in ticks (Tick)
system.cpu.numCycles                        994300634                       # Number of cpu cycles simulated (Cycle)
system.cpu.numWorkItemsStarted                      0                       # Number of work items this cpu started (Count)
system.cpu.numWorkItemsCompleted                    0                       # Number of work items this cpu completed (Count)
system.cpu.instsAdded                       359002529                       # Number of instructions added to the IQ (excludes non-spec) (Count)
system.cpu.nonSpecInstsAdded                       73                       # Number of non-speculative instructions added to the IQ (Count)
system.cpu.instsIssued                      359014139                       # Number of instructions issued (Count)
system.cpu.squashedInstsIssued                   3061                       # Number of squashed instructions issued (Count)
system.cpu.squashedInstsExamined            191473636                       # Number of squashed instructions iterated over during squash; mainly for profiling (Count)
system.cpu.squashedOperandsExamined            475185                       # Number of squashed operands that are examined and possibly removed from graph (Count)
system.cpu.squashedNonSpecRemoved                  51                       # Number of squashed non-spec instructions that were removed (Count)
system.cpu.numIssuedDist::samples           994027233                       # Number of insts issued each cycle (Count)
system.cpu.numIssuedDist::mean               0.361171                       # Number of insts issued each cycle (Count)
system.cpu.numIssuedDist::stdev              1.308804                       # Number of insts issued each cycle (Count)
system.cpu.numIssuedDist::underflows                0      0.00%      0.00% # Number of insts issued each cycle (Count)
system.cpu.numIssuedDist::0                 894522065     89.99%     89.99% # Number of insts issued each cycle (Count)
system.cpu.numIssuedDist::1                  26336173      2.65%     92.64% # Number of insts issued each cycle (Count)
system.cpu.numIssuedDist::2                  14524391      1.46%     94.10% # Number of insts issued each cycle (Count)
system.cpu.numIssuedDist::3                  11640326      1.17%     95.27% # Number of insts issued each cycle (Count)
system.cpu.numIssuedDist::4                  12238214      1.23%     96.50% # Number of insts issued each cycle (Count)
system.cpu.numIssuedDist::5                  14111912      1.42%     97.92% # Number of insts issued each cycle (Count)
system.cpu.numIssuedDist::6                   6645717      0.67%     98.59% # Number of insts issued each cycle (Count)
system.cpu.numIssuedDist::7                   2745992      0.28%     98.87% # Number of insts issued each cycle (Count)
system.cpu.numIssuedDist::8                  11262443      1.13%    100.00% # Number of insts issued each cycle (Count)
system.cpu.numIssuedDist::overflows                 0      0.00%    100.00% # Number of insts issued each cycle (Count)
system.cpu.numIssuedDist::min_value                 0                       # Number of insts issued each cycle (Count)
system.cpu.numIssuedDist::max_value                 8                       # Number of insts issued each cycle (Count)
system.cpu.numIssuedDist::total             994027233                       # Number of insts issued each cycle (Count)
system.cpu.statFuBusy::No_OpClass                   0      0.00%      0.00% # attempts to use FU when none available (Count)
system.cpu.statFuBusy::IntAlu                   13794      0.06%      0.06% # attempts to use FU when none available (Count)
system.cpu.statFuBusy::IntMult                      0      0.00%      0.06% # attempts to use FU when none available (Count)
system.cpu.statFuBusy::IntDiv                       0      0.00%      0.06% # attempts to use FU when none available (Count)
system.cpu.statFuBusy::FloatAdd                     0      0.00%      0.06% # attempts to use FU when none available (Count)
system.cpu.statFuBusy::FloatCmp                     0      0.00%      0.06% # attempts to use FU when none available (Count)
system.cpu.statFuBusy::FloatCvt                     0      0.00%      0.06% # attempts to use FU when none available (Count)
system.cpu.statFuBusy::FloatMult                    0      0.00%      0.06% # attempts to use FU when none available (Count)
system.cpu.statFuBusy::FloatMultAcc                 0      0.00%      0.06% # attempts to use FU when none available (Count)
system.cpu.statFuBusy::FloatDiv                     0      0.00%      0.06% # attempts to use FU when none available (Count)
system.cpu.statFuBusy::FloatMisc                    0      0.00%      0.06% # attempts to use FU when none available (Count)
system.cpu.statFuBusy::FloatSqrt                    0      0.00%      0.06% # attempts to use FU when none available (Count)
system.cpu.statFuBusy::SimdAdd                      0      0.00%      0.06% # attempts to use FU when none available (Count)
system.cpu.statFuBusy::SimdAddAcc                   0      0.00%      0.06% # attempts to use FU when none available (Count)
system.cpu.statFuBusy::SimdAlu                     74      0.00%      0.06% # attempts to use FU when none available (Count)
system.cpu.statFuBusy::SimdCmp                      0      0.00%      0.06% # attempts to use FU when none available (Count)
system.cpu.statFuBusy::SimdCvt                     30      0.00%      0.06% # attempts to use FU when none available (Count)
system.cpu.statFuBusy::SimdMisc                    17      0.00%      0.06% # attempts to use FU when none available (Count)
system.cpu.statFuBusy::SimdMult                     0      0.00%      0.06% # attempts to use FU when none available (Count)
system.cpu.statFuBusy::SimdMultAcc                  0      0.00%      0.06% # attempts to use FU when none available (Count)
system.cpu.statFuBusy::SimdShift                    1      0.00%      0.06% # attempts to use FU when none available (Count)
system.cpu.statFuBusy::SimdShiftAcc                 0      0.00%      0.06% # attempts to use FU when none available (Count)
system.cpu.statFuBusy::SimdDiv                      0      0.00%      0.06% # attempts to use FU when none available (Count)
system.cpu.statFuBusy::SimdSqrt                     0      0.00%      0.06% # attempts to use FU when none available (Count)
system.cpu.statFuBusy::SimdFloatAdd           1102008      4.77%      4.83% # attempts to use FU when none available (Count)
system.cpu.statFuBusy::SimdFloatAlu                 0      0.00%      4.83% # attempts to use FU when none available (Count)
system.cpu.statFuBusy::SimdFloatCmp                 0      0.00%      4.83% # attempts to use FU when none available (Count)
system.cpu.statFuBusy::SimdFloatCvt                 0      0.00%      4.83% # attempts to use FU when none available (Count)
system.cpu.statFuBusy::SimdFloatDiv                 0      0.00%      4.83% # attempts to use FU when none available (Count)
system.cpu.statFuBusy::SimdFloatMisc                0      0.00%      4.83% # attempts to use FU when none available (Count)
system.cpu.statFuBusy::SimdFloatMult           478324      2.07%      6.90% # attempts to use FU when none available (Count)
system.cpu.statFuBusy::SimdFloatMultAcc             0      0.00%      6.90% # attempts to use FU when none available (Count)
system.cpu.statFuBusy::SimdFloatSqrt                0      0.00%      6.90% # attempts to use FU when none available (Count)
system.cpu.statFuBusy::SimdReduceAdd                0      0.00%      6.90% # attempts to use FU when none available (Count)
system.cpu.statFuBusy::SimdReduceAlu                0      0.00%      6.90% # attempts to use FU when none available (Count)
system.cpu.statFuBusy::SimdReduceCmp                0      0.00%      6.90% # attempts to use FU when none available (Count)
system.cpu.statFuBusy::SimdFloatReduceAdd            0      0.00%      6.90% # attempts to use FU when none available (Count)
system.cpu.statFuBusy::SimdFloatReduceCmp            0      0.00%      6.90% # attempts to use FU when none available (Count)
system.cpu.statFuBusy::SimdAes                      0      0.00%      6.90% # attempts to use FU when none available (Count)
system.cpu.statFuBusy::SimdAesMix                   0      0.00%      6.90% # attempts to use FU when none available (Count)
system.cpu.statFuBusy::SimdSha1Hash                 0      0.00%      6.90% # attempts to use FU when none available (Count)
system.cpu.statFuBusy::SimdSha1Hash2                0      0.00%      6.90% # attempts to use FU when none available (Count)
system.cpu.statFuBusy::SimdSha256Hash               0      0.00%      6.90% # attempts to use FU when none available (Count)
system.cpu.statFuBusy::SimdSha256Hash2              0      0.00%      6.90% # attempts to use FU when none available (Count)
system.cpu.statFuBusy::SimdShaSigma2                0      0.00%      6.90% # attempts to use FU when none available (Count)
system.cpu.statFuBusy::SimdShaSigma3                0      0.00%      6.90% # attempts to use FU when none available (Count)
system.cpu.statFuBusy::SimdPredAlu                  0      0.00%      6.90% # attempts to use FU when none available (Count)
system.cpu.statFuBusy::MemRead                2000788      8.66%     15.56% # attempts to use FU when none available (Count)
system.cpu.statFuBusy::MemWrite               6000222     25.97%     41.53% # attempts to use FU when none available (Count)
system.cpu.statFuBusy::FloatMemRead          11505587     49.80%     91.33% # attempts to use FU when none available (Count)
system.cpu.statFuBusy::FloatMemWrite          2002862      8.67%    100.00% # attempts to use FU when none available (Count)
system.cpu.statFuBusy::IprAccess                    0      0.00%    100.00% # attempts to use FU when none available (Count)
system.cpu.statFuBusy::InstPrefetch                 0      0.00%    100.00% # attempts to use FU when none available (Count)
system.cpu.statIssuedInstType_0::No_OpClass     22019911      6.13%      6.13% # Number of instructions issued per FU type, per thread (Count)
system.cpu.statIssuedInstType_0::IntAlu     126655042     35.28%     41.41% # Number of instructions issued per FU type, per thread (Count)
system.cpu.statIssuedInstType_0::IntMult          221      0.00%     41.41% # Number of instructions issued per FU type, per thread (Count)
system.cpu.statIssuedInstType_0::IntDiv          1758      0.00%     41.41% # Number of instructions issued per FU type, per thread (Count)
system.cpu.statIssuedInstType_0::FloatAdd     12005461      3.34%     44.76% # Number of instructions issued per FU type, per thread (Count)
system.cpu.statIssuedInstType_0::FloatCmp            0      0.00%     44.76% # Number of instructions issued per FU type, per thread (Count)
system.cpu.statIssuedInstType_0::FloatCvt           32      0.00%     44.76% # Number of instructions issued per FU type, per thread (Count)
system.cpu.statIssuedInstType_0::FloatMult            0      0.00%     44.76% # Number of instructions issued per FU type, per thread (Count)
system.cpu.statIssuedInstType_0::FloatMultAcc            0      0.00%     44.76% # Number of instructions issued per FU type, per thread (Count)
system.cpu.statIssuedInstType_0::FloatDiv            0      0.00%     44.76% # Number of instructions issued per FU type, per thread (Count)
system.cpu.statIssuedInstType_0::FloatMisc            0      0.00%     44.76% # Number of instructions issued per FU type, per thread (Count)
system.cpu.statIssuedInstType_0::FloatSqrt            0      0.00%     44.76% # Number of instructions issued per FU type, per thread (Count)
system.cpu.statIssuedInstType_0::SimdAdd          410      0.00%     44.76% # Number of instructions issued per FU type, per thread (Count)
system.cpu.statIssuedInstType_0::SimdAddAcc            0      0.00%     44.76% # Number of instructions issued per FU type, per thread (Count)
system.cpu.statIssuedInstType_0::SimdAlu        23830      0.01%     44.76% # Number of instructions issued per FU type, per thread (Count)
system.cpu.statIssuedInstType_0::SimdCmp            8      0.00%     44.76% # Number of instructions issued per FU type, per thread (Count)
system.cpu.statIssuedInstType_0::SimdCvt         1530      0.00%     44.76% # Number of instructions issued per FU type, per thread (Count)
system.cpu.statIssuedInstType_0::SimdMisc         1718      0.00%     44.76% # Number of instructions issued per FU type, per thread (Count)
system.cpu.statIssuedInstType_0::SimdMult            0      0.00%     44.76% # Number of instructions issued per FU type, per thread (Count)
system.cpu.statIssuedInstType_0::SimdMultAcc            0      0.00%     44.76% # Number of instructions issued per FU type, per thread (Count)
system.cpu.statIssuedInstType_0::SimdShift          301      0.00%     44.76% # Number of instructions issued per FU type, per thread (Count)
system.cpu.statIssuedInstType_0::SimdShiftAcc            0      0.00%     44.76% # Number of instructions issued per FU type, per thread (Count)
system.cpu.statIssuedInstType_0::SimdDiv            0      0.00%     44.76% # Number of instructions issued per FU type, per thread (Count)
system.cpu.statIssuedInstType_0::SimdSqrt            0      0.00%     44.76% # Number of instructions issued per FU type, per thread (Count)
system.cpu.statIssuedInstType_0::SimdFloatAdd     15009138      4.18%     48.94% # Number of instructions issued per FU type, per thread (Count)
system.cpu.statIssuedInstType_0::SimdFloatAlu            0      0.00%     48.94% # Number of instructions issued per FU type, per thread (Count)
system.cpu.statIssuedInstType_0::SimdFloatCmp           25      0.00%     48.94% # Number of instructions issued per FU type, per thread (Count)
system.cpu.statIssuedInstType_0::SimdFloatCvt      3013571      0.84%     49.78% # Number of instructions issued per FU type, per thread (Count)
system.cpu.statIssuedInstType_0::SimdFloatDiv           17      0.00%     49.78% # Number of instructions issued per FU type, per thread (Count)
system.cpu.statIssuedInstType_0::SimdFloatMisc            0      0.00%     49.78% # Number of instructions issued per FU type, per thread (Count)
system.cpu.statIssuedInstType_0::SimdFloatMult      8004686      2.23%     52.01% # Number of instructions issued per FU type, per thread (Count)
system.cpu.statIssuedInstType_0::SimdFloatMultAcc            0      0.00%     52.01% # Number of instructions issued per FU type, per thread (Count)
system.cpu.statIssuedInstType_0::SimdFloatSqrt            0      0.00%     52.01% # Number of instructions issued per FU type, per thread (Count)
system.cpu.statIssuedInstType_0::SimdReduceAdd            0      0.00%     52.01% # Number of instructions issued per FU type, per thread (Count)
system.cpu.statIssuedInstType_0::SimdReduceAlu            0      0.00%     52.01% # Number of instructions issued per FU type, per thread (Count)
system.cpu.statIssuedInstType_0::SimdReduceCmp            0      0.00%     52.01% # Number of instructions issued per FU type, per thread (Count)
system.cpu.statIssuedInstType_0::SimdFloatReduceAdd            0      0.00%     52.01% # Number of instructions issued per FU type, per thread (Count)
system.cpu.statIssuedInstType_0::SimdFloatReduceCmp            0      0.00%     52.01% # Number of instructions issued per FU type, per thread (Count)
system.cpu.statIssuedInstType_0::SimdAes            0      0.00%     52.01% # Number of instructions issued per FU type, per thread (Count)
system.cpu.statIssuedInstType_0::SimdAesMix            0      0.00%     52.01% # Number of instructions issued per FU type, per thread (Count)
system.cpu.statIssuedInstType_0::SimdSha1Hash            0      0.00%     52.01% # Number of instructions issued per FU type, per thread (Count)
system.cpu.statIssuedInstType_0::SimdSha1Hash2            0      0.00%     52.01% # Number of instructions issued per FU type, per thread (Count)
system.cpu.statIssuedInstType_0::SimdSha256Hash            0      0.00%     52.01% # Number of instructions issued per FU type, per thread (Count)
system.cpu.statIssuedInstType_0::SimdSha256Hash2            0      0.00%     52.01% # Number of instructions issued per FU type, per thread (Count)
system.cpu.statIssuedInstType_0::SimdShaSigma2            0      0.00%     52.01% # Number of instructions issued per FU type, per thread (Count)
system.cpu.statIssuedInstType_0::SimdShaSigma3            0      0.00%     52.01% # Number of instructions issued per FU type, per thread (Count)
system.cpu.statIssuedInstType_0::SimdPredAlu            0      0.00%     52.01% # Number of instructions issued per FU type, per thread (Count)
system.cpu.statIssuedInstType_0::MemRead     11111123      3.09%     55.11% # Number of instructions issued per FU type, per thread (Count)
system.cpu.statIssuedInstType_0::MemWrite     25046108      6.98%     62.09% # Number of instructions issued per FU type, per thread (Count)
system.cpu.statIssuedInstType_0::FloatMemRead     75117716     20.92%     83.01% # Number of instructions issued per FU type, per thread (Count)
system.cpu.statIssuedInstType_0::FloatMemWrite     61001533     16.99%    100.00% # Number of instructions issued per FU type, per thread (Count)
system.cpu.statIssuedInstType_0::IprAccess            0      0.00%    100.00% # Number of instructions issued per FU type, per thread (Count)
system.cpu.statIssuedInstType_0::InstPrefetch            0      0.00%    100.00% # Number of instructions issued per FU type, per thread (Count)
system.cpu.statIssuedInstType_0::total      359014139                       # Number of instructions issued per FU type, per thread (Count)
system.cpu.issueRate                         0.361072                       # Inst issue rate ((Count/Cycle))
system.cpu.fuBusy                            23103707                       # FU busy when requested (Count)
system.cpu.fuBusyRate                        0.064353                       # FU busy rate (busy events/executed inst) ((Count/Count))
system.cpu.intInstQueueReads               1355692306                       # Number of integer instruction queue reads (Count)
system.cpu.intInstQueueWrites               286316470                       # Number of integer instruction queue writes (Count)
system.cpu.intInstQueueWakeupAccesses       154798381                       # Number of integer instruction queue wakeup accesses (Count)
system.cpu.fpInstQueueReads                 379469973                       # Number of floating instruction queue reads (Count)
system.cpu.fpInstQueueWrites                264159923                       # Number of floating instruction queue writes (Count)
system.cpu.fpInstQueueWakeupAccesses        182092074                       # Number of floating instruction queue wakeup accesses (Count)
system.cpu.vecInstQueueReads                        0                       # Number of vector instruction queue reads (Count)
system.cpu.vecInstQueueWrites                       0                       # Number of vector instruction queue writes (Count)
system.cpu.vecInstQueueWakeupAccesses               0                       # Number of vector instruction queue wakeup accesses (Count)
system.cpu.intAluAccesses                   162817760                       # Number of integer alu accesses (Count)
system.cpu.fpAluAccesses                    197280175                       # Number of floating point alu accesses (Count)
system.cpu.vecAluAccesses                           0                       # Number of vector alu accesses (Count)
system.cpu.numInsts                         358993649                       # Number of executed instructions (Count)
system.cpu.numLoadInsts                      86223015                       # Number of load instructions executed (Count)
system.cpu.numSquashedInsts                     20490                       # Number of squashed instructions skipped in execute (Count)
system.cpu.numSwp                                   0                       # Number of swp insts executed (Count)
system.cpu.numNop                                   0                       # Number of nop insts executed (Count)
system.cpu.numRefs                          172270004                       # Number of memory reference insts executed (Count)
system.cpu.numBranches                       14016396                       # Number of branches executed (Count)
system.cpu.numStoreInsts                     86046989                       # Number of stores executed (Count)
system.cpu.numRate                           0.361051                       # Inst execution rate ((Count/Cycle))
system.cpu.timesIdled                            1250                       # Number of times that the entire CPU went into an idle state and unscheduled itself (Count)
system.cpu.idleCycles                          273401                       # Total number of cycles that the CPU has spent unscheduled due to idling (Cycle)
system.cpu.committedInsts                    90028727                       # Number of Instructions Simulated (Count)
system.cpu.committedOps                     167528960                       # Number of Ops (including micro ops) Simulated (Count)
system.cpu.cpi                              11.044260                       # CPI: Cycles Per Instruction ((Cycle/Count))
system.cpu.totalCpi                         11.044260                       # CPI: Total CPI of All Threads ((Cycle/Count))
system.cpu.ipc                               0.090545                       # IPC: Instructions Per Cycle ((Count/Cycle))
system.cpu.totalIpc                          0.090545                       # IPC: Total IPC of All Threads ((Count/Cycle))
system.cpu.intRegfileReads                  284545182                       # Number of integer regfile reads (Count)
system.cpu.intRegfileWrites                  93760228                       # Number of integer regfile writes (Count)
system.cpu.fpRegfileReads                   152137890                       # Number of floating regfile reads (Count)
system.cpu.fpRegfileWrites                  118085523                       # Number of floating regfile writes (Count)
system.cpu.ccRegfileReads                    75952829                       # number of cc regfile reads (Count)
system.cpu.ccRegfileWrites                   79887325                       # number of cc regfile writes (Count)
system.cpu.miscRegfileReads                 204314885                       # number of misc regfile reads (Count)
system.cpu.miscRegfileWrites                       18                       # number of misc regfile writes (Count)
system.cpu.MemDepUnit__0.insertedLoads       86143896                       # Number of loads inserted to the mem dependence unit. (Count)
system.cpu.MemDepUnit__0.insertedStores      86050866                       # Number of stores inserted to the mem dependence unit. (Count)
system.cpu.MemDepUnit__0.conflictingLoads      1000928                       # Number of conflicting loads. (Count)
system.cpu.MemDepUnit__0.conflictingStores      1001005                       # Number of conflicting stores. (Count)
system.cpu.MemDepUnit__1.insertedLoads              0                       # Number of loads inserted to the mem dependence unit. (Count)
system.cpu.MemDepUnit__1.insertedStores             0                       # Number of stores inserted to the mem dependence unit. (Count)
system.cpu.MemDepUnit__1.conflictingLoads            0                       # Number of conflicting loads. (Count)
system.cpu.MemDepUnit__1.conflictingStores            0                       # Number of conflicting stores. (Count)
system.cpu.MemDepUnit__2.insertedLoads              0                       # Number of loads inserted to the mem dependence unit. (Count)
system.cpu.MemDepUnit__2.insertedStores             0                       # Number of stores inserted to the mem dependence unit. (Count)
system.cpu.MemDepUnit__2.conflictingLoads            0                       # Number of conflicting loads. (Count)
system.cpu.MemDepUnit__2.conflictingStores            0                       # Number of conflicting stores. (Count)
system.cpu.MemDepUnit__3.insertedLoads              0                       # Number of loads inserted to the mem dependence unit. (Count)
system.cpu.MemDepUnit__3.insertedStores             0                       # Number of stores inserted to the mem dependence unit. (Count)
system.cpu.MemDepUnit__3.conflictingLoads            0                       # Number of conflicting loads. (Count)
system.cpu.MemDepUnit__3.conflictingStores            0                       # Number of conflicting stores. (Count)
system.cpu.branchPred.lookups                16055262                       # Number of BP lookups (Count)
system.cpu.branchPred.condPredicted          16003776                       # Number of conditional branches predicted (Count)
system.cpu.branchPred.condIncorrect              6170                       # Number of conditional branches incorrect (Count)
system.cpu.branchPred.BTBLookups             12961443                       # Number of BTB lookups (Count)
system.cpu.branchPred.BTBHits                12958974                       # Number of BTB hits (Count)
system.cpu.branchPred.BTBHitRatio            0.999810                       # BTB Hit Ratio (Ratio)
system.cpu.branchPred.RASUsed                   16152                       # Number of times the RAS was used to get a target. (Count)
system.cpu.branchPred.RASIncorrect                 13                       # Number of incorrect RAS predictions. (Count)
system.cpu.branchPred.indirectLookups            7576                       # Number of indirect predictor lookups. (Count)
system.cpu.branchPred.indirectHits               5247                       # Number of indirect target hits. (Count)
system.cpu.branchPred.indirectMisses             2329                       # Number of indirect misses. (Count)
system.cpu.branchPred.indirectMispredicted          417                       # Number of mispredicted indirect branches. (Count)
system.cpu.commit.commitSquashedInsts       159872505                       # The number of squashed insts skipped by commit (Count)
system.cpu.commit.commitNonSpecStalls              22                       # The number of times commit has been forced to stall to communicate backwards (Count)
system.cpu.commit.branchMispredicts              6023                       # The number of times a branch was mispredicted (Count)
system.cpu.commit.numCommittedDist::samples    972973453                       # Number of insts commited each cycle (Count)
system.cpu.commit.numCommittedDist::mean     0.172182                       # Number of insts commited each cycle (Count)
system.cpu.commit.numCommittedDist::stdev     0.990605                       # Number of insts commited each cycle (Count)
system.cpu.commit.numCommittedDist::underflows            0      0.00%      0.00% # Number of insts commited each cycle (Count)
system.cpu.commit.numCommittedDist::0       928856271     95.47%     95.47% # Number of insts commited each cycle (Count)
system.cpu.commit.numCommittedDist::1        14135109      1.45%     96.92% # Number of insts commited each cycle (Count)
system.cpu.commit.numCommittedDist::2         6478439      0.67%     97.58% # Number of insts commited each cycle (Count)
system.cpu.commit.numCommittedDist::3         3658275      0.38%     97.96% # Number of insts commited each cycle (Count)
system.cpu.commit.numCommittedDist::4         5721799      0.59%     98.55% # Number of insts commited each cycle (Count)
system.cpu.commit.numCommittedDist::5         1728956      0.18%     98.73% # Number of insts commited each cycle (Count)
system.cpu.commit.numCommittedDist::6          510898      0.05%     98.78% # Number of insts commited each cycle (Count)
system.cpu.commit.numCommittedDist::7          204864      0.02%     98.80% # Number of insts commited each cycle (Count)
system.cpu.commit.numCommittedDist::8        11678842      1.20%    100.00% # Number of insts commited each cycle (Count)
system.cpu.commit.numCommittedDist::overflows            0      0.00%    100.00% # Number of insts commited each cycle (Count)
system.cpu.commit.numCommittedDist::min_value            0                       # Number of insts commited each cycle (Count)
system.cpu.commit.numCommittedDist::max_value            8                       # Number of insts commited each cycle (Count)
system.cpu.commit.numCommittedDist::total    972973453                       # Number of insts commited each cycle (Count)
system.cpu.commit.instsCommitted             90028727                       # Number of instructions committed (Count)
system.cpu.commit.opsCommitted              167528960                       # Number of ops (including micro ops) committed (Count)
system.cpu.commit.memRefs                    58113522                       # Number of memory references committed (Count)
system.cpu.commit.loads                      36081403                       # Number of loads committed (Count)
system.cpu.commit.amos                              0                       # Number of atomic instructions committed (Count)
system.cpu.commit.membars                           0                       # Number of memory barriers committed (Count)
system.cpu.commit.branches                    8976158                       # Number of branches committed (Count)
system.cpu.commit.vectorInstructions                0                       # Number of committed Vector instructions. (Count)
system.cpu.commit.floating                  100049677                       # Number of committed floating point instructions. (Count)
system.cpu.commit.integer                   121484575                       # Number of committed integer instructions. (Count)
system.cpu.commit.functionCalls                  6346                       # Number of function calls committed. (Count)
system.cpu.commit.committedInstType_0::No_OpClass         9415      0.01%      0.01% # Class of committed instruction (Count)
system.cpu.commit.committedInstType_0::IntAlu     71374138     42.60%     42.61% # Class of committed instruction (Count)
system.cpu.commit.committedInstType_0::IntMult          205      0.00%     42.61% # Class of committed instruction (Count)
system.cpu.commit.committedInstType_0::IntDiv         1612      0.00%     42.61% # Class of committed instruction (Count)
system.cpu.commit.committedInstType_0::FloatAdd     12002762      7.16%     49.78% # Class of committed instruction (Count)
system.cpu.commit.committedInstType_0::FloatCmp            0      0.00%     49.78% # Class of committed instruction (Count)
system.cpu.commit.committedInstType_0::FloatCvt           32      0.00%     49.78% # Class of committed instruction (Count)
system.cpu.commit.committedInstType_0::FloatMult            0      0.00%     49.78% # Class of committed instruction (Count)
system.cpu.commit.committedInstType_0::FloatMultAcc            0      0.00%     49.78% # Class of committed instruction (Count)
system.cpu.commit.committedInstType_0::FloatDiv            0      0.00%     49.78% # Class of committed instruction (Count)
system.cpu.commit.committedInstType_0::FloatMisc            0      0.00%     49.78% # Class of committed instruction (Count)
system.cpu.commit.committedInstType_0::FloatSqrt            0      0.00%     49.78% # Class of committed instruction (Count)
system.cpu.commit.committedInstType_0::SimdAdd          340      0.00%     49.78% # Class of committed instruction (Count)
system.cpu.commit.committedInstType_0::SimdAddAcc            0      0.00%     49.78% # Class of committed instruction (Count)
system.cpu.commit.committedInstType_0::SimdAlu        10359      0.01%     49.78% # Class of committed instruction (Count)
system.cpu.commit.committedInstType_0::SimdCmp            6      0.00%     49.78% # Class of committed instruction (Count)
system.cpu.commit.committedInstType_0::SimdCvt         1234      0.00%     49.78% # Class of committed instruction (Count)
system.cpu.commit.committedInstType_0::SimdMisc         1575      0.00%     49.78% # Class of committed instruction (Count)
system.cpu.commit.committedInstType_0::SimdMult            0      0.00%     49.78% # Class of committed instruction (Count)
system.cpu.commit.committedInstType_0::SimdMultAcc            0      0.00%     49.78% # Class of committed instruction (Count)
system.cpu.commit.committedInstType_0::SimdShift           99      0.00%     49.78% # Class of committed instruction (Count)
system.cpu.commit.committedInstType_0::SimdShiftAcc            0      0.00%     49.78% # Class of committed instruction (Count)
system.cpu.commit.committedInstType_0::SimdDiv            0      0.00%     49.78% # Class of committed instruction (Count)
system.cpu.commit.committedInstType_0::SimdSqrt            0      0.00%     49.78% # Class of committed instruction (Count)
system.cpu.commit.committedInstType_0::SimdFloatAdd     15004526      8.96%     58.74% # Class of committed instruction (Count)
system.cpu.commit.committedInstType_0::SimdFloatAlu            0      0.00%     58.74% # Class of committed instruction (Count)
system.cpu.commit.committedInstType_0::SimdFloatCmp           24      0.00%     58.74% # Class of committed instruction (Count)
system.cpu.commit.committedInstType_0::SimdFloatCvt      3006802      1.79%     60.53% # Class of committed instruction (Count)
system.cpu.commit.committedInstType_0::SimdFloatDiv           15      0.00%     60.53% # Class of committed instruction (Count)
system.cpu.commit.committedInstType_0::SimdFloatMisc            0      0.00%     60.53% # Class of committed instruction (Count)
system.cpu.commit.committedInstType_0::SimdFloatMult      8002294      4.78%     65.31% # Class of committed instruction (Count)
system.cpu.commit.committedInstType_0::SimdFloatMultAcc            0      0.00%     65.31% # Class of committed instruction (Count)
system.cpu.commit.committedInstType_0::SimdFloatSqrt            0      0.00%     65.31% # Class of committed instruction (Count)
system.cpu.commit.committedInstType_0::SimdReduceAdd            0      0.00%     65.31% # Class of committed instruction (Count)
system.cpu.commit.committedInstType_0::SimdReduceAlu            0      0.00%     65.31% # Class of committed instruction (Count)
system.cpu.commit.committedInstType_0::SimdReduceCmp            0      0.00%     65.31% # Class of committed instruction (Count)
system.cpu.commit.committedInstType_0::SimdFloatReduceAdd            0      0.00%     65.31% # Class of committed instruction (Count)
system.cpu.commit.committedInstType_0::SimdFloatReduceCmp            0      0.00%     65.31% # Class of committed instruction (Count)
system.cpu.commit.committedInstType_0::SimdAes            0      0.00%     65.31% # Class of committed instruction (Count)
system.cpu.commit.committedInstType_0::SimdAesMix            0      0.00%     65.31% # Class of committed instruction (Count)
system.cpu.commit.committedInstType_0::SimdSha1Hash            0      0.00%     65.31% # Class of committed instruction (Count)
system.cpu.commit.committedInstType_0::SimdSha1Hash2            0      0.00%     65.31% # Class of committed instruction (Count)
system.cpu.commit.committedInstType_0::SimdSha256Hash            0      0.00%     65.31% # Class of committed instruction (Count)
system.cpu.commit.committedInstType_0::SimdSha256Hash2            0      0.00%     65.31% # Class of committed instruction (Count)
system.cpu.commit.committedInstType_0::SimdShaSigma2            0      0.00%     65.31% # Class of committed instruction (Count)
system.cpu.commit.committedInstType_0::SimdShaSigma3            0      0.00%     65.31% # Class of committed instruction (Count)
system.cpu.commit.committedInstType_0::SimdPredAlu            0      0.00%     65.31% # Class of committed instruction (Count)
system.cpu.commit.committedInstType_0::MemRead      1068441      0.64%     65.95% # Class of committed instruction (Count)
system.cpu.commit.committedInstType_0::MemWrite      3030451      1.81%     67.76% # Class of committed instruction (Count)
system.cpu.commit.committedInstType_0::FloatMemRead     35012962     20.90%     88.66% # Class of committed instruction (Count)
system.cpu.commit.committedInstType_0::FloatMemWrite     19001668     11.34%    100.00% # Class of committed instruction (Count)
system.cpu.commit.committedInstType_0::IprAccess            0      0.00%    100.00% # Class of committed instruction (Count)
system.cpu.commit.committedInstType_0::InstPrefetch            0      0.00%    100.00% # Class of committed instruction (Count)
system.cpu.commit.committedInstType_0::total    167528960                       # Class of committed instruction (Count)
system.cpu.commit.commitEligibleSamples      11678842                       # number cycles where commit BW limit reached (Cycle)
system.cpu.dcache.demandHits::cpu.data       71865855                       # number of demand (read+write) hits (Count)
system.cpu.dcache.demandHits::total          71865855                       # number of demand (read+write) hits (Count)
system.cpu.dcache.overallHits::cpu.data      82360119                       # number of overall hits (Count)
system.cpu.dcache.overallHits::total         82360119                       # number of overall hits (Count)
system.cpu.dcache.demandMisses::cpu.data     23288930                       # number of demand (read+write) misses (Count)
system.cpu.dcache.demandMisses::total        23288930                       # number of demand (read+write) misses (Count)
system.cpu.dcache.overallMisses::cpu.data     23794526                       # number of overall misses (Count)
system.cpu.dcache.overallMisses::total       23794526                       # number of overall misses (Count)
system.cpu.dcache.demandMissLatency::cpu.data 814378807997                       # number of demand (read+write) miss ticks (Tick)
system.cpu.dcache.demandMissLatency::total 814378807997                       # number of demand (read+write) miss ticks (Tick)
system.cpu.dcache.overallMissLatency::cpu.data 814378807997                       # number of overall miss ticks (Tick)
system.cpu.dcache.overallMissLatency::total 814378807997                       # number of overall miss ticks (Tick)
system.cpu.dcache.demandAccesses::cpu.data     95154785                       # number of demand (read+write) accesses (Count)
system.cpu.dcache.demandAccesses::total      95154785                       # number of demand (read+write) accesses (Count)
system.cpu.dcache.overallAccesses::cpu.data    106154645                       # number of overall (read+write) accesses (Count)
system.cpu.dcache.overallAccesses::total    106154645                       # number of overall (read+write) accesses (Count)
system.cpu.dcache.demandMissRate::cpu.data     0.244748                       # miss rate for demand accesses (Ratio)
system.cpu.dcache.demandMissRate::total      0.244748                       # miss rate for demand accesses (Ratio)
system.cpu.dcache.overallMissRate::cpu.data     0.224150                       # miss rate for overall accesses (Ratio)
system.cpu.dcache.overallMissRate::total     0.224150                       # miss rate for overall accesses (Ratio)
system.cpu.dcache.demandAvgMissLatency::cpu.data 34968.493958                       # average overall miss latency in ticks ((Tick/Count))
system.cpu.dcache.demandAvgMissLatency::total 34968.493958                       # average overall miss latency in ticks ((Tick/Count))
system.cpu.dcache.overallAvgMissLatency::cpu.data 34225.468832                       # average overall miss latency ((Tick/Count))
system.cpu.dcache.overallAvgMissLatency::total 34225.468832                       # average overall miss latency ((Tick/Count))
system.cpu.dcache.blockedCycles::no_mshrs     82993325                       # number of cycles access was blocked (Cycle)
system.cpu.dcache.blockedCycles::no_targets            0                       # number of cycles access was blocked (Cycle)
system.cpu.dcache.blockedCauses::no_mshrs      1046226                       # number of times access was blocked (Count)
system.cpu.dcache.blockedCauses::no_targets            0                       # number of times access was blocked (Count)
system.cpu.dcache.avgBlocked::no_mshrs      79.326384                       # average number of cycles each access was blocked ((Cycle/Count))
system.cpu.dcache.avgBlocked::no_targets          nan                       # average number of cycles each access was blocked ((Cycle/Count))
system.cpu.dcache.writebacks::writebacks      2500915                       # number of writebacks (Count)
system.cpu.dcache.writebacks::total           2500915                       # number of writebacks (Count)
system.cpu.dcache.demandMshrHits::cpu.data     17910509                       # number of demand (read+write) MSHR hits (Count)
system.cpu.dcache.demandMshrHits::total      17910509                       # number of demand (read+write) MSHR hits (Count)
system.cpu.dcache.overallMshrHits::cpu.data     17910509                       # number of overall MSHR hits (Count)
system.cpu.dcache.overallMshrHits::total     17910509                       # number of overall MSHR hits (Count)
system.cpu.dcache.demandMshrMisses::cpu.data      5378421                       # number of demand (read+write) MSHR misses (Count)
system.cpu.dcache.demandMshrMisses::total      5378421                       # number of demand (read+write) MSHR misses (Count)
system.cpu.dcache.overallMshrMisses::cpu.data      5878429                       # number of overall MSHR misses (Count)
system.cpu.dcache.overallMshrMisses::total      5878429                       # number of overall MSHR misses (Count)
system.cpu.dcache.demandMshrMissLatency::cpu.data 473066334498                       # number of demand (read+write) MSHR miss ticks (Tick)
system.cpu.dcache.demandMshrMissLatency::total 473066334498                       # number of demand (read+write) MSHR miss ticks (Tick)
system.cpu.dcache.overallMshrMissLatency::cpu.data 514835660248                       # number of overall MSHR miss ticks (Tick)
system.cpu.dcache.overallMshrMissLatency::total 514835660248                       # number of overall MSHR miss ticks (Tick)
system.cpu.dcache.demandMshrMissRate::cpu.data     0.056523                       # mshr miss ratio for demand accesses (Ratio)
system.cpu.dcache.demandMshrMissRate::total     0.056523                       # mshr miss ratio for demand accesses (Ratio)
system.cpu.dcache.overallMshrMissRate::cpu.data     0.055376                       # mshr miss ratio for overall accesses (Ratio)
system.cpu.dcache.overallMshrMissRate::total     0.055376                       # mshr miss ratio for overall accesses (Ratio)
system.cpu.dcache.demandAvgMshrMissLatency::cpu.data 87956.360147                       # average overall mshr miss latency ((Tick/Count))
system.cpu.dcache.demandAvgMshrMissLatency::total 87956.360147                       # average overall mshr miss latency ((Tick/Count))
system.cpu.dcache.overallAvgMshrMissLatency::cpu.data 87580.484556                       # average overall mshr miss latency ((Tick/Count))
system.cpu.dcache.overallAvgMshrMissLatency::total 87580.484556                       # average overall mshr miss latency ((Tick/Count))
system.cpu.dcache.replacements                5877400                       # number of replacements (Count)
system.cpu.dcache.ReadReq.hits::cpu.data     54209410                       # number of ReadReq hits (Count)
system.cpu.dcache.ReadReq.hits::total        54209410                       # number of ReadReq hits (Count)
system.cpu.dcache.ReadReq.misses::cpu.data     20913218                       # number of ReadReq misses (Count)
system.cpu.dcache.ReadReq.misses::total      20913218                       # number of ReadReq misses (Count)
system.cpu.dcache.ReadReq.missLatency::cpu.data 619917735000                       # number of ReadReq miss ticks (Tick)
system.cpu.dcache.ReadReq.missLatency::total 619917735000                       # number of ReadReq miss ticks (Tick)
system.cpu.dcache.ReadReq.accesses::cpu.data     75122628                       # number of ReadReq accesses(hits+misses) (Count)
system.cpu.dcache.ReadReq.accesses::total     75122628                       # number of ReadReq accesses(hits+misses) (Count)
system.cpu.dcache.ReadReq.missRate::cpu.data     0.278388                       # miss rate for ReadReq accesses (Ratio)
system.cpu.dcache.ReadReq.missRate::total     0.278388                       # miss rate for ReadReq accesses (Ratio)
system.cpu.dcache.ReadReq.avgMissLatency::cpu.data 29642.388608                       # average ReadReq miss latency ((Tick/Count))
system.cpu.dcache.ReadReq.avgMissLatency::total 29642.388608                       # average ReadReq miss latency ((Tick/Count))
system.cpu.dcache.ReadReq.mshrHits::cpu.data     17910494                       # number of ReadReq MSHR hits (Count)
system.cpu.dcache.ReadReq.mshrHits::total     17910494                       # number of ReadReq MSHR hits (Count)
system.cpu.dcache.ReadReq.mshrMisses::cpu.data      3002724                       # number of ReadReq MSHR misses (Count)
system.cpu.dcache.ReadReq.mshrMisses::total      3002724                       # number of ReadReq MSHR misses (Count)
system.cpu.dcache.ReadReq.mshrMissLatency::cpu.data 279793667500                       # number of ReadReq MSHR miss ticks (Tick)
system.cpu.dcache.ReadReq.mshrMissLatency::total 279793667500                       # number of ReadReq MSHR miss ticks (Tick)
system.cpu.dcache.ReadReq.mshrMissRate::cpu.data     0.039971                       # mshr miss rate for ReadReq accesses (Ratio)
system.cpu.dcache.ReadReq.mshrMissRate::total     0.039971                       # mshr miss rate for ReadReq accesses (Ratio)
system.cpu.dcache.ReadReq.avgMshrMissLatency::cpu.data 93179.948440                       # average ReadReq mshr miss latency ((Tick/Count))
system.cpu.dcache.ReadReq.avgMshrMissLatency::total 93179.948440                       # average ReadReq mshr miss latency ((Tick/Count))
system.cpu.dcache.SoftPFReq.hits::cpu.data     10494264                       # number of SoftPFReq hits (Count)
system.cpu.dcache.SoftPFReq.hits::total      10494264                       # number of SoftPFReq hits (Count)
system.cpu.dcache.SoftPFReq.misses::cpu.data       505596                       # number of SoftPFReq misses (Count)
system.cpu.dcache.SoftPFReq.misses::total       505596                       # number of SoftPFReq misses (Count)
system.cpu.dcache.SoftPFReq.accesses::cpu.data     10999860                       # number of SoftPFReq accesses(hits+misses) (Count)
system.cpu.dcache.SoftPFReq.accesses::total     10999860                       # number of SoftPFReq accesses(hits+misses) (Count)
system.cpu.dcache.SoftPFReq.missRate::cpu.data     0.045964                       # miss rate for SoftPFReq accesses (Ratio)
system.cpu.dcache.SoftPFReq.missRate::total     0.045964                       # miss rate for SoftPFReq accesses (Ratio)
system.cpu.dcache.SoftPFReq.mshrMisses::cpu.data       500008                       # number of SoftPFReq MSHR misses (Count)
system.cpu.dcache.SoftPFReq.mshrMisses::total       500008                       # number of SoftPFReq MSHR misses (Count)
system.cpu.dcache.SoftPFReq.mshrMissLatency::cpu.data  41769325750                       # number of SoftPFReq MSHR miss ticks (Tick)
system.cpu.dcache.SoftPFReq.mshrMissLatency::total  41769325750                       # number of SoftPFReq MSHR miss ticks (Tick)
system.cpu.dcache.SoftPFReq.mshrMissRate::cpu.data     0.045456                       # mshr miss rate for SoftPFReq accesses (Ratio)
system.cpu.dcache.SoftPFReq.mshrMissRate::total     0.045456                       # mshr miss rate for SoftPFReq accesses (Ratio)
system.cpu.dcache.SoftPFReq.avgMshrMissLatency::cpu.data 83537.314903                       # average SoftPFReq mshr miss latency ((Tick/Count))
system.cpu.dcache.SoftPFReq.avgMshrMissLatency::total 83537.314903                       # average SoftPFReq mshr miss latency ((Tick/Count))
system.cpu.dcache.WriteReq.hits::cpu.data     17656445                       # number of WriteReq hits (Count)
system.cpu.dcache.WriteReq.hits::total       17656445                       # number of WriteReq hits (Count)
system.cpu.dcache.WriteReq.misses::cpu.data      2375712                       # number of WriteReq misses (Count)
system.cpu.dcache.WriteReq.misses::total      2375712                       # number of WriteReq misses (Count)
system.cpu.dcache.WriteReq.missLatency::cpu.data 194461072997                       # number of WriteReq miss ticks (Tick)
system.cpu.dcache.WriteReq.missLatency::total 194461072997                       # number of WriteReq miss ticks (Tick)
system.cpu.dcache.WriteReq.accesses::cpu.data     20032157                       # number of WriteReq accesses(hits+misses) (Count)
system.cpu.dcache.WriteReq.accesses::total     20032157                       # number of WriteReq accesses(hits+misses) (Count)
system.cpu.dcache.WriteReq.missRate::cpu.data     0.118595                       # miss rate for WriteReq accesses (Ratio)
system.cpu.dcache.WriteReq.missRate::total     0.118595                       # miss rate for WriteReq accesses (Ratio)
system.cpu.dcache.WriteReq.avgMissLatency::cpu.data 81853.807615                       # average WriteReq miss latency ((Tick/Count))
system.cpu.dcache.WriteReq.avgMissLatency::total 81853.807615                       # average WriteReq miss latency ((Tick/Count))
system.cpu.dcache.WriteReq.mshrHits::cpu.data           15                       # number of WriteReq MSHR hits (Count)
system.cpu.dcache.WriteReq.mshrHits::total           15                       # number of WriteReq MSHR hits (Count)
system.cpu.dcache.WriteReq.mshrMisses::cpu.data      2375697                       # number of WriteReq MSHR misses (Count)
system.cpu.dcache.WriteReq.mshrMisses::total      2375697                       # number of WriteReq MSHR misses (Count)
system.cpu.dcache.WriteReq.mshrMissLatency::cpu.data 193272666998                       # number of WriteReq MSHR miss ticks (Tick)
system.cpu.dcache.WriteReq.mshrMissLatency::total 193272666998                       # number of WriteReq MSHR miss ticks (Tick)
system.cpu.dcache.WriteReq.mshrMissRate::cpu.data     0.118594                       # mshr miss rate for WriteReq accesses (Ratio)
system.cpu.dcache.WriteReq.mshrMissRate::total     0.118594                       # mshr miss rate for WriteReq accesses (Ratio)
system.cpu.dcache.WriteReq.avgMshrMissLatency::cpu.data 81354.089767                       # average WriteReq mshr miss latency ((Tick/Count))
system.cpu.dcache.WriteReq.avgMshrMissLatency::total 81354.089767                       # average WriteReq mshr miss latency ((Tick/Count))
system.cpu.dcache.power_state.pwrStateResidencyTicks::UNDEFINED 248575158250                       # Cumulative time (in ticks) in various power states (Tick)
system.cpu.dcache.tags.tagsInUse          1023.794572                       # Average ticks per tags in use ((Tick/Count))
system.cpu.dcache.tags.totalRefs             88238549                       # Total number of references to valid blocks. (Count)
system.cpu.dcache.tags.sampledRefs            5878424                       # Sample count of references to valid blocks. (Count)
system.cpu.dcache.tags.avgRefs              15.010579                       # Average number of references to valid blocks. ((Count/Count))
system.cpu.dcache.tags.warmupTick              168250                       # The tick when the warmup percentage was hit. (Tick)
system.cpu.dcache.tags.occupancies::cpu.data  1023.794572                       # Average occupied blocks per tick, per requestor ((Count/Tick))
system.cpu.dcache.tags.avgOccs::cpu.data     0.999799                       # Average percentage of cache occupancy ((Ratio/Tick))
system.cpu.dcache.tags.avgOccs::total        0.999799                       # Average percentage of cache occupancy ((Ratio/Tick))
system.cpu.dcache.tags.occupanciesTaskId::1024         1024                       # Occupied blocks per task id (Count)
system.cpu.dcache.tags.ageTaskId_1024::0          117                       # Occupied blocks per task id, per block age (Count)
system.cpu.dcache.tags.ageTaskId_1024::1          906                       # Occupied blocks per task id, per block age (Count)
system.cpu.dcache.tags.ageTaskId_1024::4            1                       # Occupied blocks per task id, per block age (Count)
system.cpu.dcache.tags.ratioOccsTaskId::1024            1                       # Ratio of occupied blocks and all blocks, per task id (Ratio)
system.cpu.dcache.tags.tagAccesses          218187714                       # Number of tag accesses (Count)
system.cpu.dcache.tags.dataAccesses         218187714                       # Number of data accesses (Count)
system.cpu.dcache.tags.power_state.pwrStateResidencyTicks::UNDEFINED 248575158250                       # Cumulative time (in ticks) in various power states (Tick)
system.cpu.decode.idleCycles                 11814053                       # Number of cycles decode is idle (Cycle)
system.cpu.decode.blockedCycles             928467032                       # Number of cycles decode is blocked (Cycle)
system.cpu.decode.runCycles                  38709854                       # Number of cycles decode is running (Cycle)
system.cpu.decode.unblockCycles              13027720                       # Number of cycles decode is unblocking (Cycle)
system.cpu.decode.squashCycles                2008574                       # Number of cycles decode is squashing (Cycle)
system.cpu.decode.branchResolved             11456858                       # Number of times decode resolved a branch (Count)
system.cpu.decode.branchMispred                   739                       # Number of times decode detected a branch misprediction (Count)
system.cpu.decode.decodedInsts              381599000                       # Number of instructions handled by decode (Count)
system.cpu.decode.squashedInsts                  3506                       # Number of squashed instructions handled by decode (Count)
system.cpu.dtb_walker_cache.blockedCycles::no_mshrs            0                       # number of cycles access was blocked (Cycle)
system.cpu.dtb_walker_cache.blockedCycles::no_targets            0                       # number of cycles access was blocked (Cycle)
system.cpu.dtb_walker_cache.blockedCauses::no_mshrs            0                       # number of times access was blocked (Count)
system.cpu.dtb_walker_cache.blockedCauses::no_targets            0                       # number of times access was blocked (Count)
system.cpu.dtb_walker_cache.avgBlocked::no_mshrs          nan                       # average number of cycles each access was blocked ((Cycle/Count))
system.cpu.dtb_walker_cache.avgBlocked::no_targets          nan                       # average number of cycles each access was blocked ((Cycle/Count))
system.cpu.dtb_walker_cache.replacements            0                       # number of replacements (Count)
system.cpu.dtb_walker_cache.power_state.pwrStateResidencyTicks::UNDEFINED 248575158250                       # Cumulative time (in ticks) in various power states (Tick)
system.cpu.dtb_walker_cache.tags.tagsInUse            0                       # Average ticks per tags in use ((Tick/Count))
system.cpu.dtb_walker_cache.tags.totalRefs            0                       # Total number of references to valid blocks. (Count)
system.cpu.dtb_walker_cache.tags.sampledRefs            0                       # Sample count of references to valid blocks. (Count)
system.cpu.dtb_walker_cache.tags.avgRefs          nan                       # Average number of references to valid blocks. ((Count/Count))
system.cpu.dtb_walker_cache.tags.warmupTick            0                       # The tick when the warmup percentage was hit. (Tick)
system.cpu.dtb_walker_cache.tags.tagAccesses            0                       # Number of tag accesses (Count)
system.cpu.dtb_walker_cache.tags.dataAccesses            0                       # Number of data accesses (Count)
system.cpu.dtb_walker_cache.tags.power_state.pwrStateResidencyTicks::UNDEFINED 248575158250                       # Cumulative time (in ticks) in various power states (Tick)
system.cpu.fetch.icacheStallCycles           23596671                       # Number of cycles fetch is stalled on an Icache miss (Cycle)
system.cpu.fetch.insts                      203365629                       # Number of instructions fetch has processed (Count)
system.cpu.fetch.branches                    16055262                       # Number of branches that fetch encountered (Count)
system.cpu.fetch.predictedBranches           12980373                       # Number of branches that fetch has predicted taken (Count)
system.cpu.fetch.cycles                     968416341                       # Number of cycles fetch has run and was not squashing or blocked (Cycle)
system.cpu.fetch.squashCycles                 4018612                       # Number of cycles fetch has spent squashing (Cycle)
system.cpu.fetch.miscStallCycles                  633                       # Number of cycles fetch has spent waiting on interrupts, or bad addresses, or out of MSHRs (Cycle)
system.cpu.fetch.pendingTrapStallCycles          4249                       # Number of stall cycles due to pending traps (Cycle)
system.cpu.fetch.icacheWaitRetryStallCycles           33                       # Number of stall cycles due to full MSHR (Cycle)
system.cpu.fetch.cacheLines                  23509309                       # Number of cache lines fetched (Count)
system.cpu.fetch.icacheSquashes                  4234                       # Number of outstanding Icache misses that were squashed (Count)
system.cpu.fetch.nisnDist::samples          994027233                       # Number of instructions fetched each cycle (Total) (Count)
system.cpu.fetch.nisnDist::mean              0.455896                       # Number of instructions fetched each cycle (Total) (Count)
system.cpu.fetch.nisnDist::stdev             1.737077                       # Number of instructions fetched each cycle (Total) (Count)
system.cpu.fetch.nisnDist::underflows               0      0.00%      0.00% # Number of instructions fetched each cycle (Total) (Count)
system.cpu.fetch.nisnDist::0                918875513     92.44%     92.44% # Number of instructions fetched each cycle (Total) (Count)
system.cpu.fetch.nisnDist::1                  5880545      0.59%     93.03% # Number of instructions fetched each cycle (Total) (Count)
system.cpu.fetch.nisnDist::2                  5063586      0.51%     93.54% # Number of instructions fetched each cycle (Total) (Count)
system.cpu.fetch.nisnDist::3                  2194004      0.22%     93.76% # Number of instructions fetched each cycle (Total) (Count)
system.cpu.fetch.nisnDist::4                 12735343      1.28%     95.04% # Number of instructions fetched each cycle (Total) (Count)
system.cpu.fetch.nisnDist::5                  2613619      0.26%     95.31% # Number of instructions fetched each cycle (Total) (Count)
system.cpu.fetch.nisnDist::6                  2821587      0.28%     95.59% # Number of instructions fetched each cycle (Total) (Count)
system.cpu.fetch.nisnDist::7                  1100420      0.11%     95.70% # Number of instructions fetched each cycle (Total) (Count)
system.cpu.fetch.nisnDist::8                 42742616      4.30%    100.00% # Number of instructions fetched each cycle (Total) (Count)
system.cpu.fetch.nisnDist::overflows                0      0.00%    100.00% # Number of instructions fetched each cycle (Total) (Count)
system.cpu.fetch.nisnDist::min_value                0                       # Number of instructions fetched each cycle (Total) (Count)
system.cpu.fetch.nisnDist::max_value                8                       # Number of instructions fetched each cycle (Total) (Count)
system.cpu.fetch.nisnDist::total            994027233                       # Number of instructions fetched each cycle (Total) (Count)
system.cpu.fetch.branchRate                  0.016147                       # Number of branch fetches per cycle (Ratio)
system.cpu.fetch.rate                        0.204531                       # Number of inst fetches per cycle ((Count/Cycle))
system.cpu.icache.demandHits::cpu.inst       23506732                       # number of demand (read+write) hits (Count)
system.cpu.icache.demandHits::total          23506732                       # number of demand (read+write) hits (Count)
system.cpu.icache.overallHits::cpu.inst      23506732                       # number of overall hits (Count)
system.cpu.icache.overallHits::total         23506732                       # number of overall hits (Count)
system.cpu.icache.demandMisses::cpu.inst         2577                       # number of demand (read+write) misses (Count)
system.cpu.icache.demandMisses::total            2577                       # number of demand (read+write) misses (Count)
system.cpu.icache.overallMisses::cpu.inst         2577                       # number of overall misses (Count)
system.cpu.icache.overallMisses::total           2577                       # number of overall misses (Count)
system.cpu.icache.demandMissLatency::cpu.inst    165312249                       # number of demand (read+write) miss ticks (Tick)
system.cpu.icache.demandMissLatency::total    165312249                       # number of demand (read+write) miss ticks (Tick)
system.cpu.icache.overallMissLatency::cpu.inst    165312249                       # number of overall miss ticks (Tick)
system.cpu.icache.overallMissLatency::total    165312249                       # number of overall miss ticks (Tick)
system.cpu.icache.demandAccesses::cpu.inst     23509309                       # number of demand (read+write) accesses (Count)
system.cpu.icache.demandAccesses::total      23509309                       # number of demand (read+write) accesses (Count)
system.cpu.icache.overallAccesses::cpu.inst     23509309                       # number of overall (read+write) accesses (Count)
system.cpu.icache.overallAccesses::total     23509309                       # number of overall (read+write) accesses (Count)
system.cpu.icache.demandMissRate::cpu.inst     0.000110                       # miss rate for demand accesses (Ratio)
system.cpu.icache.demandMissRate::total      0.000110                       # miss rate for demand accesses (Ratio)
system.cpu.icache.overallMissRate::cpu.inst     0.000110                       # miss rate for overall accesses (Ratio)
system.cpu.icache.overallMissRate::total     0.000110                       # miss rate for overall accesses (Ratio)
system.cpu.icache.demandAvgMissLatency::cpu.inst 64149.107101                       # average overall miss latency in ticks ((Tick/Count))
system.cpu.icache.demandAvgMissLatency::total 64149.107101                       # average overall miss latency in ticks ((Tick/Count))
system.cpu.icache.overallAvgMissLatency::cpu.inst 64149.107101                       # average overall miss latency ((Tick/Count))
system.cpu.icache.overallAvgMissLatency::total 64149.107101                       # average overall miss latency ((Tick/Count))
system.cpu.icache.blockedCycles::no_mshrs          676                       # number of cycles access was blocked (Cycle)
system.cpu.icache.blockedCycles::no_targets            0                       # number of cycles access was blocked (Cycle)
system.cpu.icache.blockedCauses::no_mshrs            7                       # number of times access was blocked (Count)
system.cpu.icache.blockedCauses::no_targets            0                       # number of times access was blocked (Count)
system.cpu.icache.avgBlocked::no_mshrs      96.571429                       # average number of cycles each access was blocked ((Cycle/Count))
system.cpu.icache.avgBlocked::no_targets          nan                       # average number of cycles each access was blocked ((Cycle/Count))
system.cpu.icache.writebacks::writebacks         1527                       # number of writebacks (Count)
system.cpu.icache.writebacks::total              1527                       # number of writebacks (Count)
system.cpu.icache.demandMshrHits::cpu.inst          532                       # number of demand (read+write) MSHR hits (Count)
system.cpu.icache.demandMshrHits::total           532                       # number of demand (read+write) MSHR hits (Count)
system.cpu.icache.overallMshrHits::cpu.inst          532                       # number of overall MSHR hits (Count)
system.cpu.icache.overallMshrHits::total          532                       # number of overall MSHR hits (Count)
system.cpu.icache.demandMshrMisses::cpu.inst         2045                       # number of demand (read+write) MSHR misses (Count)
system.cpu.icache.demandMshrMisses::total         2045                       # number of demand (read+write) MSHR misses (Count)
system.cpu.icache.overallMshrMisses::cpu.inst         2045                       # number of overall MSHR misses (Count)
system.cpu.icache.overallMshrMisses::total         2045                       # number of overall MSHR misses (Count)
system.cpu.icache.demandMshrMissLatency::cpu.inst    128338249                       # number of demand (read+write) MSHR miss ticks (Tick)
system.cpu.icache.demandMshrMissLatency::total    128338249                       # number of demand (read+write) MSHR miss ticks (Tick)
system.cpu.icache.overallMshrMissLatency::cpu.inst    128338249                       # number of overall MSHR miss ticks (Tick)
system.cpu.icache.overallMshrMissLatency::total    128338249                       # number of overall MSHR miss ticks (Tick)
system.cpu.icache.demandMshrMissRate::cpu.inst     0.000087                       # mshr miss ratio for demand accesses (Ratio)
system.cpu.icache.demandMshrMissRate::total     0.000087                       # mshr miss ratio for demand accesses (Ratio)
system.cpu.icache.overallMshrMissRate::cpu.inst     0.000087                       # mshr miss ratio for overall accesses (Ratio)
system.cpu.icache.overallMshrMissRate::total     0.000087                       # mshr miss ratio for overall accesses (Ratio)
system.cpu.icache.demandAvgMshrMissLatency::cpu.inst 62757.089976                       # average overall mshr miss latency ((Tick/Count))
system.cpu.icache.demandAvgMshrMissLatency::total 62757.089976                       # average overall mshr miss latency ((Tick/Count))
system.cpu.icache.overallAvgMshrMissLatency::cpu.inst 62757.089976                       # average overall mshr miss latency ((Tick/Count))
system.cpu.icache.overallAvgMshrMissLatency::total 62757.089976                       # average overall mshr miss latency ((Tick/Count))
system.cpu.icache.replacements                   1527                       # number of replacements (Count)
system.cpu.icache.ReadReq.hits::cpu.inst     23506732                       # number of ReadReq hits (Count)
system.cpu.icache.ReadReq.hits::total        23506732                       # number of ReadReq hits (Count)
system.cpu.icache.ReadReq.misses::cpu.inst         2577                       # number of ReadReq misses (Count)
system.cpu.icache.ReadReq.misses::total          2577                       # number of ReadReq misses (Count)
system.cpu.icache.ReadReq.missLatency::cpu.inst    165312249                       # number of ReadReq miss ticks (Tick)
system.cpu.icache.ReadReq.missLatency::total    165312249                       # number of ReadReq miss ticks (Tick)
system.cpu.icache.ReadReq.accesses::cpu.inst     23509309                       # number of ReadReq accesses(hits+misses) (Count)
system.cpu.icache.ReadReq.accesses::total     23509309                       # number of ReadReq accesses(hits+misses) (Count)
system.cpu.icache.ReadReq.missRate::cpu.inst     0.000110                       # miss rate for ReadReq accesses (Ratio)
system.cpu.icache.ReadReq.missRate::total     0.000110                       # miss rate for ReadReq accesses (Ratio)
system.cpu.icache.ReadReq.avgMissLatency::cpu.inst 64149.107101                       # average ReadReq miss latency ((Tick/Count))
system.cpu.icache.ReadReq.avgMissLatency::total 64149.107101                       # average ReadReq miss latency ((Tick/Count))
system.cpu.icache.ReadReq.mshrHits::cpu.inst          532                       # number of ReadReq MSHR hits (Count)
system.cpu.icache.ReadReq.mshrHits::total          532                       # number of ReadReq MSHR hits (Count)
system.cpu.icache.ReadReq.mshrMisses::cpu.inst         2045                       # number of ReadReq MSHR misses (Count)
system.cpu.icache.ReadReq.mshrMisses::total         2045                       # number of ReadReq MSHR misses (Count)
system.cpu.icache.ReadReq.mshrMissLatency::cpu.inst    128338249                       # number of ReadReq MSHR miss ticks (Tick)
system.cpu.icache.ReadReq.mshrMissLatency::total    128338249                       # number of ReadReq MSHR miss ticks (Tick)
system.cpu.icache.ReadReq.mshrMissRate::cpu.inst     0.000087                       # mshr miss rate for ReadReq accesses (Ratio)
system.cpu.icache.ReadReq.mshrMissRate::total     0.000087                       # mshr miss rate for ReadReq accesses (Ratio)
system.cpu.icache.ReadReq.avgMshrMissLatency::cpu.inst 62757.089976                       # average ReadReq mshr miss latency ((Tick/Count))
system.cpu.icache.ReadReq.avgMshrMissLatency::total 62757.089976                       # average ReadReq mshr miss latency ((Tick/Count))
system.cpu.icache.power_state.pwrStateResidencyTicks::UNDEFINED 248575158250                       # Cumulative time (in ticks) in various power states (Tick)
system.cpu.icache.tags.tagsInUse           502.597404                       # Average ticks per tags in use ((Tick/Count))
system.cpu.icache.tags.totalRefs             23508776                       # Total number of references to valid blocks. (Count)
system.cpu.icache.tags.sampledRefs               2044                       # Sample count of references to valid blocks. (Count)
system.cpu.icache.tags.avgRefs           11501.358121                       # Average number of references to valid blocks. ((Count/Count))
system.cpu.icache.tags.warmupTick               85250                       # The tick when the warmup percentage was hit. (Tick)
system.cpu.icache.tags.occupancies::cpu.inst   502.597404                       # Average occupied blocks per tick, per requestor ((Count/Tick))
system.cpu.icache.tags.avgOccs::cpu.inst     0.981636                       # Average percentage of cache occupancy ((Ratio/Tick))
system.cpu.icache.tags.avgOccs::total        0.981636                       # Average percentage of cache occupancy ((Ratio/Tick))
system.cpu.icache.tags.occupanciesTaskId::1024          508                       # Occupied blocks per task id (Count)
system.cpu.icache.tags.ageTaskId_1024::0          128                       # Occupied blocks per task id, per block age (Count)
system.cpu.icache.tags.ageTaskId_1024::1            1                       # Occupied blocks per task id, per block age (Count)
system.cpu.icache.tags.ageTaskId_1024::4          379                       # Occupied blocks per task id, per block age (Count)
system.cpu.icache.tags.ratioOccsTaskId::1024     0.992188                       # Ratio of occupied blocks and all blocks, per task id (Ratio)
system.cpu.icache.tags.tagAccesses           47020662                       # Number of tag accesses (Count)
system.cpu.icache.tags.dataAccesses          47020662                       # Number of data accesses (Count)
system.cpu.icache.tags.power_state.pwrStateResidencyTicks::UNDEFINED 248575158250                       # Cumulative time (in ticks) in various power states (Tick)
system.cpu.iew.idleCycles                           0                       # Number of cycles IEW is idle (Cycle)
system.cpu.iew.squashCycles                   2008574                       # Number of cycles IEW is squashing (Cycle)
system.cpu.iew.blockCycles                   53882968                       # Number of cycles IEW is blocking (Cycle)
system.cpu.iew.unblockCycles                201691369                       # Number of cycles IEW is unblocking (Cycle)
system.cpu.iew.dispatchedInsts              359002602                       # Number of instructions dispatched to IQ (Count)
system.cpu.iew.dispSquashedInsts                  507                       # Number of squashed instructions skipped by dispatch (Count)
system.cpu.iew.dispLoadInsts                 86143896                       # Number of dispatched load instructions (Count)
system.cpu.iew.dispStoreInsts                86050866                       # Number of dispatched store instructions (Count)
system.cpu.iew.dispNonSpecInsts                    25                       # Number of dispatched non-speculative instructions (Count)
system.cpu.iew.iqFullEvents                      4203                       # Number of times the IQ has become full, causing a stall (Count)
system.cpu.iew.lsqFullEvents                201869297                       # Number of times the LSQ has become full, causing a stall (Count)
system.cpu.iew.memOrderViolationEvents            159                       # Number of memory order violations (Count)
system.cpu.iew.predictedTakenIncorrect           2250                       # Number of branches that were predicted taken incorrectly (Count)
system.cpu.iew.predictedNotTakenIncorrect         4968                       # Number of branches that were predicted not taken incorrectly (Count)
system.cpu.iew.branchMispredicts                 7218                       # Number of branch mispredicts detected at execute (Count)
system.cpu.iew.instsToCommit                358897398                       # Cumulative count of insts sent to commit (Count)
system.cpu.iew.writebackCount               336890455                       # Cumulative count of insts written-back (Count)
system.cpu.iew.producerInst                 179471403                       # Number of instructions producing a value (Count)
system.cpu.iew.consumerInst                 233465132                       # Number of instructions consuming a value (Count)
system.cpu.iew.wbRate                        0.338822                       # Insts written-back per cycle ((Count/Cycle))
system.cpu.iew.wbFanout                      0.768729                       # Average fanout of values written-back ((Count/Count))
system.cpu.interrupts.clk_domain.clock           4000                       # Clock period in ticks (Tick)
system.cpu.itb_walker_cache.blockedCycles::no_mshrs            0                       # number of cycles access was blocked (Cycle)
system.cpu.itb_walker_cache.blockedCycles::no_targets            0                       # number of cycles access was blocked (Cycle)
system.cpu.itb_walker_cache.blockedCauses::no_mshrs            0                       # number of times access was blocked (Count)
system.cpu.itb_walker_cache.blockedCauses::no_targets            0                       # number of times access was blocked (Count)
system.cpu.itb_walker_cache.avgBlocked::no_mshrs          nan                       # average number of cycles each access was blocked ((Cycle/Count))
system.cpu.itb_walker_cache.avgBlocked::no_targets          nan                       # average number of cycles each access was blocked ((Cycle/Count))
system.cpu.itb_walker_cache.replacements            0                       # number of replacements (Count)
system.cpu.itb_walker_cache.power_state.pwrStateResidencyTicks::UNDEFINED 248575158250                       # Cumulative time (in ticks) in various power states (Tick)
system.cpu.itb_walker_cache.tags.tagsInUse            0                       # Average ticks per tags in use ((Tick/Count))
system.cpu.itb_walker_cache.tags.totalRefs            0                       # Total number of references to valid blocks. (Count)
system.cpu.itb_walker_cache.tags.sampledRefs            0                       # Sample count of references to valid blocks. (Count)
system.cpu.itb_walker_cache.tags.avgRefs          nan                       # Average number of references to valid blocks. ((Count/Count))
system.cpu.itb_walker_cache.tags.warmupTick            0                       # The tick when the warmup percentage was hit. (Tick)
system.cpu.itb_walker_cache.tags.tagAccesses            0                       # Number of tag accesses (Count)
system.cpu.itb_walker_cache.tags.dataAccesses            0                       # Number of data accesses (Count)
system.cpu.itb_walker_cache.tags.power_state.pwrStateResidencyTicks::UNDEFINED 248575158250                       # Cumulative time (in ticks) in various power states (Tick)
system.cpu.lsq0.forwLoads                        8552                       # Number of loads that had data forwarded from stores (Count)
system.cpu.lsq0.squashedLoads                50062493                       # Number of loads squashed (Count)
system.cpu.lsq0.ignoredResponses                   30                       # Number of memory responses ignored because the instruction is squashed (Count)
system.cpu.lsq0.memOrderViolation                 159                       # Number of memory ordering violations (Count)
system.cpu.lsq0.squashedStores               64018747                       # Number of stores squashed (Count)
system.cpu.lsq0.rescheduledLoads                   10                       # Number of loads that were rescheduled (Count)
system.cpu.lsq0.blockedByCache                  82755                       # Number of times an access to memory failed due to the cache being blocked (Count)
[...]
system.mem_ctrls7.dram.bytesPerActivate::mean    81.794457                       # Bytes accessed per row activation (Byte)
system.mem_ctrls7.dram.bytesPerActivate::gmean    72.351760                       # Bytes accessed per row activation (Byte)
system.mem_ctrls7.dram.bytesPerActivate::stdev    59.474051                       # Bytes accessed per row activation (Byte)
system.mem_ctrls7.dram.bytesPerActivate::0-63         4078      0.50%      0.50% # Bytes accessed per row activation (Byte)
system.mem_ctrls7.dram.bytesPerActivate::64-127       739362     90.21%     90.70% # Bytes accessed per row activation (Byte)
system.mem_ctrls7.dram.bytesPerActivate::128-191        12889      1.57%     92.28% # Bytes accessed per row activation (Byte)
system.mem_ctrls7.dram.bytesPerActivate::192-255        10020      1.22%     93.50% # Bytes accessed per row activation (Byte)
system.mem_ctrls7.dram.bytesPerActivate::256-319        32684      3.99%     97.49% # Bytes accessed per row activation (Byte)
system.mem_ctrls7.dram.bytesPerActivate::320-383        18345      2.24%     99.72% # Bytes accessed per row activation (Byte)
system.mem_ctrls7.dram.bytesPerActivate::384-447         2065      0.25%     99.98% # Bytes accessed per row activation (Byte)
system.mem_ctrls7.dram.bytesPerActivate::448-511           95      0.01%     99.99% # Bytes accessed per row activation (Byte)
system.mem_ctrls7.dram.bytesPerActivate::512-575           97      0.01%    100.00% # Bytes accessed per row activation (Byte)
system.mem_ctrls7.dram.bytesPerActivate::total       819635                       # Bytes accessed per row activation (Byte)
system.mem_ctrls7.dram.bytesRead             47036896                       # Total bytes read (Byte)
system.mem_ctrls7.dram.bytesWritten          20004704                       # Total bytes written (Byte)
system.mem_ctrls7.dram.avgRdBW             189.226053                       # Average DRAM read bandwidth in MiBytes/s ((Byte/Second))
system.mem_ctrls7.dram.avgWrBW              80.477487                       # Average DRAM write bandwidth in MiBytes/s ((Byte/Second))
system.mem_ctrls7.dram.peakBW                16000.00                       # Theoretical peak bandwidth in MiByte/s ((Byte/Second))
system.mem_ctrls7.dram.busUtil                   1.69                       # Data bus utilization in percentage (Ratio)
system.mem_ctrls7.dram.busUtilRead               1.18                       # Data bus utilization in percentage for reads (Ratio)
system.mem_ctrls7.dram.busUtilWrite              0.50                       # Data bus utilization in percentage for writes (Ratio)
system.mem_ctrls7.dram.pageHitRate              60.88                       # Row buffer hit rate, read and write combined (Ratio)
system.mem_ctrls7.dram.power_state.pwrStateResidencyTicks::UNDEFINED 248575158250                       # Cumulative time (in ticks) in various power states (Tick)
system.mem_ctrls7.dram.rank0.actEnergy              0                       # Energy for activate commands per rank (pJ) (Joule)
system.mem_ctrls7.dram.rank0.preEnergy              0                       # Energy for precharge commands per rank (pJ) (Joule)
system.mem_ctrls7.dram.rank0.readEnergy             0                       # Energy for read commands per rank (pJ) (Joule)
system.mem_ctrls7.dram.rank0.writeEnergy            0                       # Energy for write commands per rank (pJ) (Joule)
system.mem_ctrls7.dram.rank0.refreshEnergy            0                       # Energy for refresh commands per rank (pJ) (Joule)
system.mem_ctrls7.dram.rank0.actBackEnergy            0                       # Energy for active background per rank (pJ) (Joule)
system.mem_ctrls7.dram.rank0.preBackEnergy            0                       # Energy for precharge background per rank (pJ) (Joule)
system.mem_ctrls7.dram.rank0.actPowerDownEnergy            0                       # Energy for active power-down per rank (pJ) (Joule)
system.mem_ctrls7.dram.rank0.prePowerDownEnergy            0                       # Energy for precharge power-down per rank (pJ) (Joule)
system.mem_ctrls7.dram.rank0.selfRefreshEnergy            0                       # Energy for self refresh per rank (pJ) (Joule)
system.mem_ctrls7.dram.rank0.totalEnergy            0                       # Total energy per rank (pJ) (Joule)
system.mem_ctrls7.dram.rank0.averagePower            0                       # Core power per rank (mW) (Watt)
system.mem_ctrls7.dram.rank0.totalIdleTime            0                       # Total Idle time Per DRAM Rank (Tick)
system.mem_ctrls7.dram.rank0.pwrStateTime::IDLE 170385189625                       # Time in different power states (Tick)
system.mem_ctrls7.dram.rank0.pwrStateTime::REF  14072520000                       # Time in different power states (Tick)
system.mem_ctrls7.dram.rank0.pwrStateTime::SREF            0                       # Time in different power states (Tick)
system.mem_ctrls7.dram.rank0.pwrStateTime::PRE_PDN            0                       # Time in different power states (Tick)
system.mem_ctrls7.dram.rank0.pwrStateTime::ACT  64117448625                       # Time in different power states (Tick)
system.mem_ctrls7.dram.rank0.pwrStateTime::ACT_PDN            0                       # Time in different power states (Tick)
system.mem_ctrls7.power_state.pwrStateResidencyTicks::UNDEFINED 248575158250                       # Cumulative time (in ticks) in various power states (Tick)
system.membus.transDist::ReadResp             3503977                       # Transaction distribution (Count)
system.membus.transDist::WritebackDirty       2500738                       # Transaction distribution (Count)
system.membus.transDist::CleanEvict           3345732                       # Transaction distribution (Count)
system.membus.transDist::UpgradeReq                 1                       # Transaction distribution (Count)
system.membus.transDist::ReadExReq            2375645                       # Transaction distribution (Count)
system.membus.transDist::ReadExResp           2375645                       # Transaction distribution (Count)
system.membus.transDist::ReadSharedReq        3503977                       # Transaction distribution (Count)
system.membus.pktCount_system.l2.mem_side_port::system.mem_ctrls0.port      2200712                       # Packet count per connected requestor and responder (Count)
system.membus.pktCount_system.l2.mem_side_port::system.mem_ctrls1.port      2200787                       # Packet count per connected requestor and responder (Count)
system.membus.pktCount_system.l2.mem_side_port::system.mem_ctrls2.port      2200808                       # Packet count per connected requestor and responder (Count)
system.membus.pktCount_system.l2.mem_side_port::system.mem_ctrls3.port      2200616                       # Packet count per connected requestor and responder (Count)
system.membus.pktCount_system.l2.mem_side_port::system.mem_ctrls4.port      2200698                       # Packet count per connected requestor and responder (Count)
system.membus.pktCount_system.l2.mem_side_port::system.mem_ctrls5.port      2200667                       # Packet count per connected requestor and responder (Count)
system.membus.pktCount_system.l2.mem_side_port::system.mem_ctrls6.port      2200673                       # Packet count per connected requestor and responder (Count)
system.membus.pktCount_system.l2.mem_side_port::system.mem_ctrls7.port      2200754                       # Packet count per connected requestor and responder (Count)
system.membus.pktCount_system.l2.mem_side_port::total     17605715                       # Packet count per connected requestor and responder (Count)
system.membus.pktCount::total                17605715                       # Packet count per connected requestor and responder (Count)
system.membus.pktSize_system.l2.mem_side_port::system.mem_ctrls0.port     67043328                       # Cumulative packet size per connected requestor and responder (Byte)
system.membus.pktSize_system.l2.mem_side_port::system.mem_ctrls1.port     67044864                       # Cumulative packet size per connected requestor and responder (Byte)
system.membus.pktSize_system.l2.mem_side_port::system.mem_ctrls2.port     67046592                       # Cumulative packet size per connected requestor and responder (Byte)
system.membus.pktSize_system.l2.mem_side_port::system.mem_ctrls3.port     67040704                       # Cumulative packet size per connected requestor and responder (Byte)
system.membus.pktSize_system.l2.mem_side_port::system.mem_ctrls4.port     67041792                       # Cumulative packet size per connected requestor and responder (Byte)
system.membus.pktSize_system.l2.mem_side_port::system.mem_ctrls5.port     67041344                       # Cumulative packet size per connected requestor and responder (Byte)
system.membus.pktSize_system.l2.mem_side_port::system.mem_ctrls6.port     67041216                       # Cumulative packet size per connected requestor and responder (Byte)
system.membus.pktSize_system.l2.mem_side_port::system.mem_ctrls7.port     67043200                       # Cumulative packet size per connected requestor and responder (Byte)
system.membus.pktSize_system.l2.mem_side_port::total    536343040                       # Cumulative packet size per connected requestor and responder (Byte)
system.membus.pktSize::total                536343040                       # Cumulative packet size per connected requestor and responder (Byte)
system.membus.snoops                                0                       # Total snoops (Count)
system.membus.snoopTraffic                          0                       # Total snoop traffic (Byte)
system.membus.snoopFanout::samples            5879623                       # Request fanout histogram (Count)
system.membus.snoopFanout::mean                     0                       # Request fanout histogram (Count)
system.membus.snoopFanout::stdev                    0                       # Request fanout histogram (Count)
system.membus.snoopFanout::underflows               0      0.00%      0.00% # Request fanout histogram (Count)
system.membus.snoopFanout::0                  5879623    100.00%    100.00% # Request fanout histogram (Count)
system.membus.snoopFanout::1                        0      0.00%    100.00% # Request fanout histogram (Count)
system.membus.snoopFanout::overflows                0      0.00%    100.00% # Request fanout histogram (Count)
system.membus.snoopFanout::min_value                0                       # Request fanout histogram (Count)
system.membus.snoopFanout::max_value                0                       # Request fanout histogram (Count)
system.membus.snoopFanout::total              5879623                       # Request fanout histogram (Count)
system.membus.power_state.pwrStateResidencyTicks::UNDEFINED 248575158250                       # Cumulative time (in ticks) in various power states (Tick)
system.membus.reqLayer2.occupancy          2982321815                       # Layer occupancy (ticks) (Tick)
system.membus.reqLayer2.utilization               0.0                       # Layer utilization (Ratio)
system.membus.reqLayer3.occupancy          2981920618                       # Layer occupancy (ticks) (Tick)
system.membus.reqLayer3.utilization               0.0                       # Layer utilization (Ratio)
system.membus.reqLayer4.occupancy          2983807576                       # Layer occupancy (ticks) (Tick)
system.membus.reqLayer4.utilization               0.0                       # Layer utilization (Ratio)
system.membus.reqLayer5.occupancy          2982656018                       # Layer occupancy (ticks) (Tick)
system.membus.reqLayer5.utilization               0.0                       # Layer utilization (Ratio)
system.membus.reqLayer6.occupancy          2982054717                       # Layer occupancy (ticks) (Tick)
system.membus.reqLayer6.utilization               0.0                       # Layer utilization (Ratio)
system.membus.reqLayer7.occupancy          2982591870                       # Layer occupancy (ticks) (Tick)
system.membus.reqLayer7.utilization               0.0                       # Layer utilization (Ratio)
system.membus.reqLayer8.occupancy          2981165789                       # Layer occupancy (ticks) (Tick)
system.membus.reqLayer8.utilization               0.0                       # Layer utilization (Ratio)
system.membus.reqLayer9.occupancy          2980557972                       # Layer occupancy (ticks) (Tick)
system.membus.reqLayer9.utilization               0.0                       # Layer utilization (Ratio)
system.membus.respLayer1.occupancy        29616568498                       # Layer occupancy (ticks) (Tick)
system.membus.respLayer1.utilization              0.1                       # Layer utilization (Ratio)
system.membus.snoop_filter.totRequests       11726093                       # Total number of requests made to the snoop filter. (Count)
system.membus.snoop_filter.hitSingleRequests      5846476                       # Number of requests hitting in the snoop filter with a single holder of the requested data. (Count)
system.membus.snoop_filter.hitMultiRequests            0                       # Number of requests hitting in the snoop filter with multiple (>1) holders of the requested data. (Count)
system.membus.snoop_filter.totSnoops                0                       # Total number of snoops made to the snoop filter. (Count)
system.membus.snoop_filter.hitSingleSnoops            0                       # Number of snoops hitting in the snoop filter with a single holder of the requested data. (Count)
system.membus.snoop_filter.hitMultiSnoops            0                       # Number of snoops hitting in the snoop filter with multiple (>1) holders of the requested data. (Count)
system.tol2bus.transDist::ReadResp            3504776                       # Transaction distribution (Count)
system.tol2bus.transDist::WritebackDirty      5001653                       # Transaction distribution (Count)
system.tol2bus.transDist::WritebackClean         1527                       # Transaction distribution (Count)
system.tol2bus.transDist::CleanEvict          6722847                       # Transaction distribution (Count)
system.tol2bus.transDist::UpgradeReq                5                       # Transaction distribution (Count)
system.tol2bus.transDist::UpgradeResp               5                       # Transaction distribution (Count)
system.tol2bus.transDist::ReadExReq           2375692                       # Transaction distribution (Count)
system.tol2bus.transDist::ReadExResp          2375692                       # Transaction distribution (Count)
system.tol2bus.transDist::ReadCleanReq           2045                       # Transaction distribution (Count)
system.tol2bus.transDist::ReadSharedReq       3502732                       # Transaction distribution (Count)
system.tol2bus.pktCount_system.cpu.icache.mem_side_port::system.l2.cpu_side_port         5612                       # Packet count per connected requestor and responder (Count)
system.tol2bus.pktCount_system.cpu.dcache.mem_side_port::system.l2.cpu_side_port     17634258                       # Packet count per connected requestor and responder (Count)
system.tol2bus.pktCount::total               17639870                       # Packet count per connected requestor and responder (Count)
system.tol2bus.pktSize_system.cpu.icache.mem_side_port::system.l2.cpu_side_port       228288                       # Cumulative packet size per connected requestor and responder (Byte)
system.tol2bus.pktSize_system.cpu.dcache.mem_side_port::system.l2.cpu_side_port    536277696                       # Cumulative packet size per connected requestor and responder (Byte)
system.tol2bus.pktSize::total               536505984                       # Cumulative packet size per connected requestor and responder (Byte)
system.tol2bus.snoops                         5847104                       # Total snoops (Count)
system.tol2bus.snoopTraffic                 160047488                       # Total snoop traffic (Byte)
system.tol2bus.snoopFanout::samples          11727574                       # Request fanout histogram (Count)
system.tol2bus.snoopFanout::mean             0.000062                       # Request fanout histogram (Count)
system.tol2bus.snoopFanout::stdev            0.007895                       # Request fanout histogram (Count)
system.tol2bus.snoopFanout::underflows              0      0.00%      0.00% # Request fanout histogram (Count)
system.tol2bus.snoopFanout::0                11726846     99.99%     99.99% # Request fanout histogram (Count)
system.tol2bus.snoopFanout::1                     727      0.01%    100.00% # Request fanout histogram (Count)
system.tol2bus.snoopFanout::2                       1      0.00%    100.00% # Request fanout histogram (Count)
system.tol2bus.snoopFanout::3                       0      0.00%    100.00% # Request fanout histogram (Count)
system.tol2bus.snoopFanout::4                       0      0.00%    100.00% # Request fanout histogram (Count)
system.tol2bus.snoopFanout::overflows               0      0.00%    100.00% # Request fanout histogram (Count)
system.tol2bus.snoopFanout::min_value               0                       # Request fanout histogram (Count)
system.tol2bus.snoopFanout::max_value               2                       # Request fanout histogram (Count)
system.tol2bus.snoopFanout::total            11727574                       # Request fanout histogram (Count)
system.tol2bus.power_state.pwrStateResidencyTicks::UNDEFINED 248575158250                       # Cumulative time (in ticks) in various power states (Tick)
system.tol2bus.reqLayer0.occupancy         4191071250                       # Layer occupancy (ticks) (Tick)
system.tol2bus.reqLayer0.utilization              0.0                       # Layer utilization (Ratio)
system.tol2bus.respLayer0.occupancy           1533249                       # Layer occupancy (ticks) (Tick)
system.tol2bus.respLayer0.utilization             0.0                       # Layer utilization (Ratio)
system.tol2bus.respLayer1.occupancy        4408819250                       # Layer occupancy (ticks) (Tick)
system.tol2bus.respLayer1.utilization             0.0                       # Layer utilization (Ratio)
system.tol2bus.snoop_filter.totRequests      11759401                       # Total number of requests made to the snoop filter. (Count)
system.tol2bus.snoop_filter.hitSingleRequests      5878936                       # Number of requests hitting in the snoop filter with a single holder of the requested data. (Count)
system.tol2bus.snoop_filter.hitMultiRequests           50                       # Number of requests hitting in the snoop filter with multiple (>1) holders of the requested data. (Count)
system.tol2bus.snoop_filter.totSnoops             670                       # Total number of snoops made to the snoop filter. (Count)
system.tol2bus.snoop_filter.hitSingleSnoops          669                       # Number of snoops hitting in the snoop filter with a single holder of the requested data. (Count)
system.tol2bus.snoop_filter.hitMultiSnoops            1                       # Number of snoops hitting in the snoop filter with multiple (>1) holders of the requested data. (Count)
system.voltage_domain.voltage                       1                       # Voltage in Volts (Volt)
system.workload.inst.arm                            0                       # number of arm instructions executed (Count)
system.workload.inst.quiesce                        0                       # number of quiesce instructions executed (Count)

---------- End Simulation Statistics   ----------
