
---------- Begin Simulation Statistics ----------
simSeconds                                   0.133638                       # Number of seconds simulated (Second)
simTicks                                 133638169750                       # Number of ticks simulated (Tick)
finalTick                                133638169750                       # Number of ticks from beginning of simulation (restored from checkpoints and never reset) (Tick)
simFreq                                  1000000000000                       # The number of ticks per simulated second ((Tick/Second))
hostSeconds                                   1117.59                       # Real time elapsed on the host (Second)
hostTickRate                                119577295                       # The number of ticks simulated per host second (ticks/s) ((Tick/Second))
hostMemory                                    7752484                       # Number of bytes of host memory used (Byte)
simInsts                                     95604416                       # Number of instructions simulated (Count)
simOps                                      172808008                       # Number of ops (including micro ops) simulated (Count)
hostInstRate                                    85545                       # Simulator instruction rate (inst/s) ((Count/Second))
hostOpRate                                     154626                       # Simulator op (including micro ops) rate (op/s) ((Count/Second))
system.clk_domain.clock                          1000                       # Clock period in ticks (Tick)
system.cpu0.numCycles                       534552680                       # Number of cpu cycles simulated (Cycle)
system.cpu0.numWorkItemsStarted                     0                       # Number of work items this cpu started (Count)
system.cpu0.numWorkItemsCompleted                   0                       # Number of work items this cpu completed (Count)
system.cpu0.instsAdded                      197838769                       # Number of instructions added to the IQ (excludes non-spec) (Count)
system.cpu0.nonSpecInstsAdded                    1169                       # Number of non-speculative instructions added to the IQ (Count)
system.cpu0.instsIssued                     197757427                       # Number of instructions issued (Count)
system.cpu0.squashedInstsIssued                  2101                       # Number of squashed instructions issued (Count)
system.cpu0.squashedInstsExamined            96104364                       # Number of squashed instructions iterated over during squash; mainly for profiling (Count)
system.cpu0.squashedOperandsExamined           739651                       # Number of squashed operands that are examined and possibly removed from graph (Count)
system.cpu0.squashedNonSpecRemoved                427                       # Number of squashed non-spec instructions that were removed (Count)
system.cpu0.numIssuedDist::samples          534153297                       # Number of insts issued each cycle (Count)
system.cpu0.numIssuedDist::mean              0.370226                       # Number of insts issued each cycle (Count)
system.cpu0.numIssuedDist::stdev             1.325910                       # Number of insts issued each cycle (Count)
system.cpu0.numIssuedDist::underflows               0      0.00%      0.00% # Number of insts issued each cycle (Count)
system.cpu0.numIssuedDist::0                478287482     89.54%     89.54% # Number of insts issued each cycle (Count)
system.cpu0.numIssuedDist::1                 14814946      2.77%     92.31% # Number of insts issued each cycle (Count)
system.cpu0.numIssuedDist::2                 11239708      2.10%     94.42% # Number of insts issued each cycle (Count)
system.cpu0.numIssuedDist::3                  4752178      0.89%     95.31% # Number of insts issued each cycle (Count)
system.cpu0.numIssuedDist::4                  6703241      1.25%     96.56% # Number of insts issued each cycle (Count)
system.cpu0.numIssuedDist::5                  5127025      0.96%     97.52% # Number of insts issued each cycle (Count)
system.cpu0.numIssuedDist::6                  4368869      0.82%     98.34% # Number of insts issued each cycle (Count)
system.cpu0.numIssuedDist::7                  3333556      0.62%     98.97% # Number of insts issued each cycle (Count)
system.cpu0.numIssuedDist::8                  5526292      1.03%    100.00% # Number of insts issued each cycle (Count)
system.cpu0.numIssuedDist::overflows                0      0.00%    100.00% # Number of insts issued each cycle (Count)
system.cpu0.numIssuedDist::min_value                0                       # Number of insts issued each cycle (Count)
system.cpu0.numIssuedDist::max_value                8                       # Number of insts issued each cycle (Count)
system.cpu0.numIssuedDist::total            534153297                       # Number of insts issued each cycle (Count)
system.cpu0.statFuBusy::No_OpClass                  0      0.00%      0.00% # attempts to use FU when none available (Count)
system.cpu0.statFuBusy::IntAlu                 120832      0.81%      0.81% # attempts to use FU when none available (Count)
system.cpu0.statFuBusy::IntMult                     0      0.00%      0.81% # attempts to use FU when none available (Count)
system.cpu0.statFuBusy::IntDiv                      0      0.00%      0.81% # attempts to use FU when none available (Count)
system.cpu0.statFuBusy::FloatAdd                    0      0.00%      0.81% # attempts to use FU when none available (Count)
system.cpu0.statFuBusy::FloatCmp                    0      0.00%      0.81% # attempts to use FU when none available (Count)
system.cpu0.statFuBusy::FloatCvt                    7      0.00%      0.81% # attempts to use FU when none available (Count)
system.cpu0.statFuBusy::FloatMult                   0      0.00%      0.81% # attempts to use FU when none available (Count)
system.cpu0.statFuBusy::FloatMultAcc                0      0.00%      0.81% # attempts to use FU when none available (Count)
system.cpu0.statFuBusy::FloatDiv                    0      0.00%      0.81% # attempts to use FU when none available (Count)
system.cpu0.statFuBusy::FloatMisc                   0      0.00%      0.81% # attempts to use FU when none available (Count)
system.cpu0.statFuBusy::FloatSqrt                   0      0.00%      0.81% # attempts to use FU when none available (Count)
system.cpu0.statFuBusy::SimdAdd                     2      0.00%      0.81% # attempts to use FU when none available (Count)
system.cpu0.statFuBusy::SimdAddAcc                  0      0.00%      0.81% # attempts to use FU when none available (Count)
system.cpu0.statFuBusy::SimdAlu                   109      0.00%      0.81% # attempts to use FU when none available (Count)
system.cpu0.statFuBusy::SimdCmp                     0      0.00%      0.81% # attempts to use FU when none available (Count)
system.cpu0.statFuBusy::SimdCvt                    88      0.00%      0.81% # attempts to use FU when none available (Count)
system.cpu0.statFuBusy::SimdMisc                   50      0.00%      0.81% # attempts to use FU when none available (Count)
system.cpu0.statFuBusy::SimdMult                    0      0.00%      0.81% # attempts to use FU when none available (Count)
system.cpu0.statFuBusy::SimdMultAcc                 0      0.00%      0.81% # attempts to use FU when none available (Count)
system.cpu0.statFuBusy::SimdShift                  15      0.00%      0.81% # attempts to use FU when none available (Count)
system.cpu0.statFuBusy::SimdShiftAcc                0      0.00%      0.81% # attempts to use FU when none available (Count)
system.cpu0.statFuBusy::SimdDiv                     0      0.00%      0.81% # attempts to use FU when none available (Count)
system.cpu0.statFuBusy::SimdSqrt                    0      0.00%      0.81% # attempts to use FU when none available (Count)
system.cpu0.statFuBusy::SimdFloatAdd           858253      5.73%      6.54% # attempts to use FU when none available (Count)
system.cpu0.statFuBusy::SimdFloatAlu                0      0.00%      6.54% # attempts to use FU when none available (Count)
system.cpu0.statFuBusy::SimdFloatCmp                0      0.00%      6.54% # attempts to use FU when none available (Count)
system.cpu0.statFuBusy::SimdFloatCvt                0      0.00%      6.54% # attempts to use FU when none available (Count)
system.cpu0.statFuBusy::SimdFloatDiv                0      0.00%      6.54% # attempts to use FU when none available (Count)
system.cpu0.statFuBusy::SimdFloatMisc               0      0.00%      6.54% # attempts to use FU when none available (Count)
system.cpu0.statFuBusy::SimdFloatMult               0      0.00%      6.54% # attempts to use FU when none available (Count)
system.cpu0.statFuBusy::SimdFloatMultAcc            0      0.00%      6.54% # attempts to use FU when none available (Count)
system.cpu0.statFuBusy::SimdFloatSqrt               0      0.00%      6.54% # attempts to use FU when none available (Count)
system.cpu0.statFuBusy::SimdReduceAdd               0      0.00%      6.54% # attempts to use FU when none available (Count)
system.cpu0.statFuBusy::SimdReduceAlu               0      0.00%      6.54% # attempts to use FU when none available (Count)
system.cpu0.statFuBusy::SimdReduceCmp               0      0.00%      6.54% # attempts to use FU when none available (Count)
system.cpu0.statFuBusy::SimdFloatReduceAdd            0      0.00%      6.54% # attempts to use FU when none available (Count)
system.cpu0.statFuBusy::SimdFloatReduceCmp            0      0.00%      6.54% # attempts to use FU when none available (Count)
system.cpu0.statFuBusy::SimdAes                     0      0.00%      6.54% # attempts to use FU when none available (Count)
system.cpu0.statFuBusy::SimdAesMix                  0      0.00%      6.54% # attempts to use FU when none available (Count)
system.cpu0.statFuBusy::SimdSha1Hash                0      0.00%      6.54% # attempts to use FU when none available (Count)
system.cpu0.statFuBusy::SimdSha1Hash2               0      0.00%      6.54% # attempts to use FU when none available (Count)
system.cpu0.statFuBusy::SimdSha256Hash              0      0.00%      6.54% # attempts to use FU when none available (Count)
system.cpu0.statFuBusy::SimdSha256Hash2             0      0.00%      6.54% # attempts to use FU when none available (Count)
system.cpu0.statFuBusy::SimdShaSigma2               0      0.00%      6.54% # attempts to use FU when none available (Count)
system.cpu0.statFuBusy::SimdShaSigma3               0      0.00%      6.54% # attempts to use FU when none available (Count)
system.cpu0.statFuBusy::SimdPredAlu                 0      0.00%      6.54% # attempts to use FU when none available (Count)
system.cpu0.statFuBusy::MemRead               1501625     10.02%     16.56% # attempts to use FU when none available (Count)
system.cpu0.statFuBusy::MemWrite              3500863     23.36%     39.92% # attempts to use FU when none available (Count)
system.cpu0.statFuBusy::FloatMemRead          7753228     51.74%     91.66% # attempts to use FU when none available (Count)
system.cpu0.statFuBusy::FloatMemWrite         1250305      8.34%    100.00% # attempts to use FU when none available (Count)
system.cpu0.statFuBusy::IprAccess                   0      0.00%    100.00% # attempts to use FU when none available (Count)
system.cpu0.statFuBusy::InstPrefetch                0      0.00%    100.00% # attempts to use FU when none available (Count)
system.cpu0.statIssuedInstType_0::No_OpClass     11014942      5.57%      5.57% # Number of instructions issued per FU type, per thread (Count)
system.cpu0.statIssuedInstType_0::IntAlu     76346462     38.61%     44.18% # Number of instructions issued per FU type, per thread (Count)
system.cpu0.statIssuedInstType_0::IntMult          278      0.00%     44.18% # Number of instructions issued per FU type, per thread (Count)
system.cpu0.statIssuedInstType_0::IntDiv         3063      0.00%     44.18% # Number of instructions issued per FU type, per thread (Count)
system.cpu0.statIssuedInstType_0::FloatAdd      5505822      2.78%     46.96% # Number of instructions issued per FU type, per thread (Count)
system.cpu0.statIssuedInstType_0::FloatCmp            0      0.00%     46.96% # Number of instructions issued per FU type, per thread (Count)
system.cpu0.statIssuedInstType_0::FloatCvt          490      0.00%     46.96% # Number of instructions issued per FU type, per thread (Count)
system.cpu0.statIssuedInstType_0::FloatMult            0      0.00%     46.96% # Number of instructions issued per FU type, per thread (Count)
system.cpu0.statIssuedInstType_0::FloatMultAcc            0      0.00%     46.96% # Number of instructions issued per FU type, per thread (Count)
system.cpu0.statIssuedInstType_0::FloatDiv            0      0.00%     46.96% # Number of instructions issued per FU type, per thread (Count)
system.cpu0.statIssuedInstType_0::FloatMisc            0      0.00%     46.96% # Number of instructions issued per FU type, per thread (Count)
system.cpu0.statIssuedInstType_0::FloatSqrt            0      0.00%     46.96% # Number of instructions issued per FU type, per thread (Count)
system.cpu0.statIssuedInstType_0::SimdAdd         2681      0.00%     46.96% # Number of instructions issued per FU type, per thread (Count)
system.cpu0.statIssuedInstType_0::SimdAddAcc            0      0.00%     46.96% # Number of instructions issued per FU type, per thread (Count)
system.cpu0.statIssuedInstType_0::SimdAlu        32437      0.02%     46.98% # Number of instructions issued per FU type, per thread (Count)
system.cpu0.statIssuedInstType_0::SimdCmp           70      0.00%     46.98% # Number of instructions issued per FU type, per thread (Count)
system.cpu0.statIssuedInstType_0::SimdCvt         6177      0.00%     46.98% # Number of instructions issued per FU type, per thread (Count)
system.cpu0.statIssuedInstType_0::SimdMisc         4036      0.00%     46.99% # Number of instructions issued per FU type, per thread (Count)
system.cpu0.statIssuedInstType_0::SimdMult            0      0.00%     46.99% # Number of instructions issued per FU type, per thread (Count)
system.cpu0.statIssuedInstType_0::SimdMultAcc            0      0.00%     46.99% # Number of instructions issued per FU type, per thread (Count)
system.cpu0.statIssuedInstType_0::SimdShift         1511      0.00%     46.99% # Number of instructions issued per FU type, per thread (Count)
system.cpu0.statIssuedInstType_0::SimdShiftAcc            0      0.00%     46.99% # Number of instructions issued per FU type, per thread (Count)
system.cpu0.statIssuedInstType_0::SimdDiv            0      0.00%     46.99% # Number of instructions issued per FU type, per thread (Count)
system.cpu0.statIssuedInstType_0::SimdSqrt            0      0.00%     46.99% # Number of instructions issued per FU type, per thread (Count)
system.cpu0.statIssuedInstType_0::SimdFloatAdd     10509113      5.31%     52.30% # Number of instructions issued per FU type, per thread (Count)
system.cpu0.statIssuedInstType_0::SimdFloatAlu            0      0.00%     52.30% # Number of instructions issued per FU type, per thread (Count)
system.cpu0.statIssuedInstType_0::SimdFloatCmp           24      0.00%     52.30% # Number of instructions issued per FU type, per thread (Count)
system.cpu0.statIssuedInstType_0::SimdFloatCvt      3017928      1.53%     53.83% # Number of instructions issued per FU type, per thread (Count)
system.cpu0.statIssuedInstType_0::SimdFloatDiv           18      0.00%     53.83% # Number of instructions issued per FU type, per thread (Count)
system.cpu0.statIssuedInstType_0::SimdFloatMisc            0      0.00%     53.83% # Number of instructions issued per FU type, per thread (Count)
system.cpu0.statIssuedInstType_0::SimdFloatMult      4006630      2.03%     55.85% # Number of instructions issued per FU type, per thread (Count)
system.cpu0.statIssuedInstType_0::SimdFloatMultAcc            0      0.00%     55.85% # Number of instructions issued per FU type, per thread (Count)
system.cpu0.statIssuedInstType_0::SimdFloatSqrt            0      0.00%     55.85% # Number of instructions issued per FU type, per thread (Count)
system.cpu0.statIssuedInstType_0::SimdReduceAdd            0      0.00%     55.85% # Number of instructions issued per FU type, per thread (Count)
system.cpu0.statIssuedInstType_0::SimdReduceAlu            0      0.00%     55.85% # Number of instructions issued per FU type, per thread (Count)
system.cpu0.statIssuedInstType_0::SimdReduceCmp            0      0.00%     55.85% # Number of instructions issued per FU type, per thread (Count)
system.cpu0.statIssuedInstType_0::SimdFloatReduceAdd            0      0.00%     55.85% # Number of instructions issued per FU type, per thread (Count)
system.cpu0.statIssuedInstType_0::SimdFloatReduceCmp            0      0.00%     55.85% # Number of instructions issued per FU type, per thread (Count)
system.cpu0.statIssuedInstType_0::SimdAes            0      0.00%     55.85% # Number of instructions issued per FU type, per thread (Count)
system.cpu0.statIssuedInstType_0::SimdAesMix            0      0.00%     55.85% # Number of instructions issued per FU type, per thread (Count)
system.cpu0.statIssuedInstType_0::SimdSha1Hash            0      0.00%     55.85% # Number of instructions issued per FU type, per thread (Count)
system.cpu0.statIssuedInstType_0::SimdSha1Hash2            0      0.00%     55.85% # Number of instructions issued per FU type, per thread (Count)
system.cpu0.statIssuedInstType_0::SimdSha256Hash            0      0.00%     55.85% # Number of instructions issued per FU type, per thread (Count)
system.cpu0.statIssuedInstType_0::SimdSha256Hash2            0      0.00%     55.85% # Number of instructions issued per FU type, per thread (Count)
system.cpu0.statIssuedInstType_0::SimdShaSigma2            0      0.00%     55.85% # Number of instructions issued per FU type, per thread (Count)
system.cpu0.statIssuedInstType_0::SimdShaSigma3            0      0.00%     55.85% # Number of instructions issued per FU type, per thread (Count)
system.cpu0.statIssuedInstType_0::SimdPredAlu            0      0.00%     55.85% # Number of instructions issued per FU type, per thread (Count)
system.cpu0.statIssuedInstType_0::MemRead      5666226      2.87%     58.72% # Number of instructions issued per FU type, per thread (Count)
system.cpu0.statIssuedInstType_0::MemWrite     12556677      6.35%     65.07% # Number of instructions issued per FU type, per thread (Count)
system.cpu0.statIssuedInstType_0::FloatMemRead     38579038     19.51%     84.58% # Number of instructions issued per FU type, per thread (Count)
system.cpu0.statIssuedInstType_0::FloatMemWrite     30503804     15.42%    100.00% # Number of instructions issued per FU type, per thread (Count)
system.cpu0.statIssuedInstType_0::IprAccess            0      0.00%    100.00% # Number of instructions issued per FU type, per thread (Count)
system.cpu0.statIssuedInstType_0::InstPrefetch            0      0.00%    100.00% # Number of instructions issued per FU type, per thread (Count)
system.cpu0.statIssuedInstType_0::total     197757427                       # Number of instructions issued per FU type, per thread (Count)
system.cpu0.issueRate                        0.369949                       # Inst issue rate ((Count/Cycle))
system.cpu0.fuBusy                           14985377                       # FU busy when requested (Count)
system.cpu0.fuBusyRate                       0.075777                       # FU busy rate (busy events/executed inst) ((Count/Count))
system.cpu0.intInstQueueReads               734324087                       # Number of integer instruction queue reads (Count)
system.cpu0.intInstQueueWrites              152702143                       # Number of integer instruction queue writes (Count)
system.cpu0.intInstQueueWakeupAccesses       86532195                       # Number of integer instruction queue wakeup accesses (Count)
system.cpu0.fpInstQueueReads                210331542                       # Number of floating instruction queue reads (Count)
system.cpu0.fpInstQueueWrites               141242510                       # Number of floating instruction queue writes (Count)
system.cpu0.fpInstQueueWakeupAccesses       100134932                       # Number of floating instruction queue wakeup accesses (Count)
system.cpu0.vecInstQueueReads                       0                       # Number of vector instruction queue reads (Count)
system.cpu0.vecInstQueueWrites                      0                       # Number of vector instruction queue writes (Count)
system.cpu0.vecInstQueueWakeupAccesses              0                       # Number of vector instruction queue wakeup accesses (Count)
system.cpu0.intAluAccesses                   91578668                       # Number of integer alu accesses (Count)
system.cpu0.fpAluAccesses                   110149194                       # Number of floating point alu accesses (Count)
system.cpu0.vecAluAccesses                          0                       # Number of vector alu accesses (Count)
system.cpu0.numInsts                        197731363                       # Number of executed instructions (Count)
system.cpu0.numLoadInsts                     44239305                       # Number of load instructions executed (Count)
system.cpu0.numSquashedInsts                    26064                       # Number of squashed instructions skipped in execute (Count)
system.cpu0.numSwp                                  0                       # Number of swp insts executed (Count)
system.cpu0.numNop                                  0                       # Number of nop insts executed (Count)
system.cpu0.numRefs                          87298802                       # Number of memory reference insts executed (Count)
system.cpu0.numBranches                       9091901                       # Number of branches executed (Count)
system.cpu0.numStoreInsts                    43059497                       # Number of stores executed (Count)
system.cpu0.numRate                          0.369901                       # Inst execution rate ((Count/Cycle))
system.cpu0.timesIdled                           1727                       # Number of times that the entire CPU went into an idle state and unscheduled itself (Count)
system.cpu0.idleCycles                         399383                       # Total number of cycles that the CPU has spent unscheduled due to idling (Cycle)
system.cpu0.committedInsts                   56009362                       # Number of Instructions Simulated (Count)
system.cpu0.committedOps                    101735568                       # Number of Ops (including micro ops) Simulated (Count)
system.cpu0.cpi                              9.543988                       # CPI: Cycles Per Instruction ((Cycle/Count))
system.cpu0.totalCpi                         9.543988                       # CPI: Total CPI of All Threads ((Cycle/Count))
system.cpu0.ipc                              0.104778                       # IPC: Instructions Per Cycle ((Count/Cycle))
system.cpu0.totalIpc                         0.104778                       # IPC: Total IPC of All Threads ((Count/Cycle))
system.cpu0.intRegfileReads                 155569724                       # Number of integer regfile reads (Count)
system.cpu0.intRegfileWrites                 53344005                       # Number of integer regfile writes (Count)
system.cpu0.fpRegfileReads                   96200393                       # Number of floating regfile reads (Count)
system.cpu0.fpRegfileWrites                  66623642                       # Number of floating regfile writes (Count)
system.cpu0.ccRegfileReads                   51404693                       # number of cc regfile reads (Count)
system.cpu0.ccRegfileWrites                  47596525                       # number of cc regfile writes (Count)
system.cpu0.miscRegfileReads                105501594                       # number of misc regfile reads (Count)
system.cpu0.miscRegfileWrites                     234                       # number of misc regfile writes (Count)
system.cpu0.MemDepUnit__0.insertedLoads      44213599                       # Number of loads inserted to the mem dependence unit. (Count)
system.cpu0.MemDepUnit__0.insertedStores     43066132                       # Number of stores inserted to the mem dependence unit. (Count)
system.cpu0.MemDepUnit__0.conflictingLoads       504041                       # Number of conflicting loads. (Count)
system.cpu0.MemDepUnit__0.conflictingStores       503098                       # Number of conflicting stores. (Count)
system.cpu0.MemDepUnit__1.insertedLoads             0                       # Number of loads inserted to the mem dependence unit. (Count)
system.cpu0.MemDepUnit__1.insertedStores            0                       # Number of stores inserted to the mem dependence unit. (Count)
system.cpu0.MemDepUnit__1.conflictingLoads            0                       # Number of conflicting loads. (Count)
system.cpu0.MemDepUnit__1.conflictingStores            0                       # Number of conflicting stores. (Count)
system.cpu0.MemDepUnit__2.insertedLoads             0                       # Number of loads inserted to the mem dependence unit. (Count)
system.cpu0.MemDepUnit__2.insertedStores            0                       # Number of stores inserted to the mem dependence unit. (Count)
system.cpu0.MemDepUnit__2.conflictingLoads            0                       # Number of conflicting loads. (Count)
system.cpu0.MemDepUnit__2.conflictingStores            0                       # Number of conflicting stores. (Count)
system.cpu0.MemDepUnit__3.insertedLoads             0                       # Number of loads inserted to the mem dependence unit. (Count)
system.cpu0.MemDepUnit__3.insertedStores            0                       # Number of stores inserted to the mem dependence unit. (Count)
system.cpu0.MemDepUnit__3.conflictingLoads            0                       # Number of conflicting loads. (Count)
system.cpu0.MemDepUnit__3.conflictingStores            0                       # Number of conflicting stores. (Count)
system.cpu0.branchPred.lookups               10643083                       # Number of BP lookups (Count)
system.cpu0.branchPred.condPredicted         10592404                       # Number of conditional branches predicted (Count)
system.cpu0.branchPred.condIncorrect             8814                       # Number of conditional branches incorrect (Count)
system.cpu0.branchPred.BTBLookups             7528654                       # Number of BTB lookups (Count)
system.cpu0.branchPred.BTBHits                7524957                       # Number of BTB hits (Count)
system.cpu0.branchPred.BTBHitRatio           0.999509                       # BTB Hit Ratio (Ratio)
system.cpu0.branchPred.RASUsed                  19312                       # Number of times the RAS was used to get a target. (Count)
system.cpu0.branchPred.RASIncorrect                10                       # Number of incorrect RAS predictions. (Count)
system.cpu0.branchPred.indirectLookups           9179                       # Number of indirect predictor lookups. (Count)
system.cpu0.branchPred.indirectHits              5615                       # Number of indirect target hits. (Count)
system.cpu0.branchPred.indirectMisses            3564                       # Number of indirect misses. (Count)
system.cpu0.branchPred.indirectMispredicted          798                       # Number of mispredicted indirect branches. (Count)
system.cpu0.commit.commitSquashedInsts       85003351                       # The number of squashed insts skipped by commit (Count)
system.cpu0.commit.commitNonSpecStalls            742                       # The number of times commit has been forced to stall to communicate backwards (Count)
system.cpu0.commit.branchMispredicts             8473                       # The number of times a branch was mispredicted (Count)
system.cpu0.commit.numCommittedDist::samples    522830233                       # Number of insts commited each cycle (Count)
system.cpu0.commit.numCommittedDist::mean     0.194586                       # Number of insts commited each cycle (Count)
system.cpu0.commit.numCommittedDist::stdev     1.053355                       # Number of insts commited each cycle (Count)
system.cpu0.commit.numCommittedDist::underflows            0      0.00%      0.00% # Number of insts commited each cycle (Count)
system.cpu0.commit.numCommittedDist::0      496422548     94.95%     94.95% # Number of insts commited each cycle (Count)
system.cpu0.commit.numCommittedDist::1        8522339      1.63%     96.58% # Number of insts commited each cycle (Count)
system.cpu0.commit.numCommittedDist::2        2872745      0.55%     97.13% # Number of insts commited each cycle (Count)
system.cpu0.commit.numCommittedDist::3        2811740      0.54%     97.67% # Number of insts commited each cycle (Count)
system.cpu0.commit.numCommittedDist::4        4107129      0.79%     98.45% # Number of insts commited each cycle (Count)
system.cpu0.commit.numCommittedDist::5         486884      0.09%     98.55% # Number of insts commited each cycle (Count)
system.cpu0.commit.numCommittedDist::6          70560      0.01%     98.56% # Number of insts commited each cycle (Count)
system.cpu0.commit.numCommittedDist::7         544081      0.10%     98.66% # Number of insts commited each cycle (Count)
system.cpu0.commit.numCommittedDist::8        6992207      1.34%    100.00% # Number of insts commited each cycle (Count)
system.cpu0.commit.numCommittedDist::overflows            0      0.00%    100.00% # Number of insts commited each cycle (Count)
system.cpu0.commit.numCommittedDist::min_value            0                       # Number of insts commited each cycle (Count)
system.cpu0.commit.numCommittedDist::max_value            8                       # Number of insts commited each cycle (Count)
system.cpu0.commit.numCommittedDist::total    522830233                       # Number of insts commited each cycle (Count)
system.cpu0.commit.instsCommitted            56009362                       # Number of instructions committed (Count)
system.cpu0.commit.opsCommitted             101735568                       # Number of ops (including micro ops) committed (Count)
system.cpu0.commit.memRefs                   30164832                       # Number of memory references committed (Count)
system.cpu0.commit.loads                     19120693                       # Number of loads committed (Count)
system.cpu0.commit.amos                             0                       # Number of atomic instructions committed (Count)
system.cpu0.commit.membars                        336                       # Number of memory barriers committed (Count)
system.cpu0.commit.branches                   6552672                       # Number of branches committed (Count)
system.cpu0.commit.vectorInstructions               0                       # Number of committed Vector instructions. (Count)
system.cpu0.commit.floating                  59068002                       # Number of committed floating point instructions. (Count)
system.cpu0.commit.integer                   70678863                       # Number of committed integer instructions. (Count)
system.cpu0.commit.functionCalls                 7969                       # Number of function calls committed. (Count)
system.cpu0.commit.committedInstType_0::No_OpClass         6714      0.01%      0.01% # Class of committed instruction (Count)
system.cpu0.commit.committedInstType_0::IntAlu     48520467     47.69%     47.70% # Class of committed instruction (Count)
system.cpu0.commit.committedInstType_0::IntMult          254      0.00%     47.70% # Class of committed instruction (Count)
system.cpu0.commit.committedInstType_0::IntDiv         2797      0.00%     47.70% # Class of committed instruction (Count)
system.cpu0.commit.committedInstType_0::FloatAdd      5502911      5.41%     53.11% # Class of committed instruction (Count)
system.cpu0.commit.committedInstType_0::FloatCmp            0      0.00%     53.11% # Class of committed instruction (Count)
system.cpu0.commit.committedInstType_0::FloatCvt          416      0.00%     53.11% # Class of committed instruction (Count)
system.cpu0.commit.committedInstType_0::FloatMult            0      0.00%     53.11% # Class of committed instruction (Count)
system.cpu0.commit.committedInstType_0::FloatMultAcc            0      0.00%     53.11% # Class of committed instruction (Count)
system.cpu0.commit.committedInstType_0::FloatDiv            0      0.00%     53.11% # Class of committed instruction (Count)
system.cpu0.commit.committedInstType_0::FloatMisc            0      0.00%     53.11% # Class of committed instruction (Count)
system.cpu0.commit.committedInstType_0::FloatSqrt            0      0.00%     53.11% # Class of committed instruction (Count)
system.cpu0.commit.committedInstType_0::SimdAdd         2098      0.00%     53.11% # Class of committed instruction (Count)
system.cpu0.commit.committedInstType_0::SimdAddAcc            0      0.00%     53.11% # Class of committed instruction (Count)
system.cpu0.commit.committedInstType_0::SimdAlu        12652      0.01%     53.13% # Class of committed instruction (Count)
system.cpu0.commit.committedInstType_0::SimdCmp           66      0.00%     53.13% # Class of committed instruction (Count)
system.cpu0.commit.committedInstType_0::SimdCvt         4504      0.00%     53.13% # Class of committed instruction (Count)
system.cpu0.commit.committedInstType_0::SimdMisc         3385      0.00%     53.13% # Class of committed instruction (Count)
system.cpu0.commit.committedInstType_0::SimdMult            0      0.00%     53.13% # Class of committed instruction (Count)
system.cpu0.commit.committedInstType_0::SimdMultAcc            0      0.00%     53.13% # Class of committed instruction (Count)
system.cpu0.commit.committedInstType_0::SimdShift          727      0.00%     53.13% # Class of committed instruction (Count)
system.cpu0.commit.committedInstType_0::SimdShiftAcc            0      0.00%     53.13% # Class of committed instruction (Count)
system.cpu0.commit.committedInstType_0::SimdDiv            0      0.00%     53.13% # Class of committed instruction (Count)
system.cpu0.commit.committedInstType_0::SimdSqrt            0      0.00%     53.13% # Class of committed instruction (Count)
system.cpu0.commit.committedInstType_0::SimdFloatAdd     10504554     10.33%     63.46% # Class of committed instruction (Count)
system.cpu0.commit.committedInstType_0::SimdFloatAlu            0      0.00%     63.46% # Class of committed instruction (Count)
system.cpu0.commit.committedInstType_0::SimdFloatCmp           24      0.00%     63.46% # Class of committed instruction (Count)
system.cpu0.commit.committedInstType_0::SimdFloatCvt      3006844      2.96%     66.42% # Class of committed instruction (Count)
system.cpu0.commit.committedInstType_0::SimdFloatDiv           15      0.00%     66.42% # Class of committed instruction (Count)
system.cpu0.commit.committedInstType_0::SimdFloatMisc            0      0.00%     66.42% # Class of committed instruction (Count)
system.cpu0.commit.committedInstType_0::SimdFloatMult      4002308      3.93%     70.35% # Class of committed instruction (Count)
system.cpu0.commit.committedInstType_0::SimdFloatMultAcc            0      0.00%     70.35% # Class of committed instruction (Count)
system.cpu0.commit.committedInstType_0::SimdFloatSqrt            0      0.00%     70.35% # Class of committed instruction (Count)
system.cpu0.commit.committedInstType_0::SimdReduceAdd            0      0.00%     70.35% # Class of committed instruction (Count)
system.cpu0.commit.committedInstType_0::SimdReduceAlu            0      0.00%     70.35% # Class of committed instruction (Count)
system.cpu0.commit.committedInstType_0::SimdReduceCmp            0      0.00%     70.35% # Class of committed instruction (Count)
system.cpu0.commit.committedInstType_0::SimdFloatReduceAdd            0      0.00%     70.35% # Class of committed instruction (Count)
system.cpu0.commit.committedInstType_0::SimdFloatReduceCmp            0      0.00%     70.35% # Class of committed instruction (Count)
system.cpu0.commit.committedInstType_0::SimdAes            0      0.00%     70.35% # Class of committed instruction (Count)
system.cpu0.commit.committedInstType_0::SimdAesMix            0      0.00%     70.35% # Class of committed instruction (Count)
system.cpu0.commit.committedInstType_0::SimdSha1Hash            0      0.00%     70.35% # Class of committed instruction (Count)
system.cpu0.commit.committedInstType_0::SimdSha1Hash2            0      0.00%     70.35% # Class of committed instruction (Count)
system.cpu0.commit.committedInstType_0::SimdSha256Hash            0      0.00%     70.35% # Class of committed instruction (Count)
system.cpu0.commit.committedInstType_0::SimdSha256Hash2            0      0.00%     70.35% # Class of committed instruction (Count)
system.cpu0.commit.committedInstType_0::SimdShaSigma2            0      0.00%     70.35% # Class of committed instruction (Count)
system.cpu0.commit.committedInstType_0::SimdShaSigma3            0      0.00%     70.35% # Class of committed instruction (Count)
system.cpu0.commit.committedInstType_0::SimdPredAlu            0      0.00%     70.35% # Class of committed instruction (Count)
system.cpu0.commit.committedInstType_0::MemRead       602644      0.59%     70.94% # Class of committed instruction (Count)
system.cpu0.commit.committedInstType_0::MemWrite      1540167      1.51%     72.46% # Class of committed instruction (Count)
system.cpu0.commit.committedInstType_0::FloatMemRead     18518049     18.20%     90.66% # Class of committed instruction (Count)
system.cpu0.commit.committedInstType_0::FloatMemWrite      9503972      9.34%    100.00% # Class of committed instruction (Count)
system.cpu0.commit.committedInstType_0::IprAccess            0      0.00%    100.00% # Class of committed instruction (Count)
system.cpu0.commit.committedInstType_0::InstPrefetch            0      0.00%    100.00% # Class of committed instruction (Count)
system.cpu0.commit.committedInstType_0::total    101735568                       # Class of committed instruction (Count)
system.cpu0.commit.commitEligibleSamples      6992207                       # number cycles where commit BW limit reached (Cycle)
system.cpu0.dcache.demandHits::cpu0.data     36170053                       # number of demand (read+write) hits (Count)
system.cpu0.dcache.demandHits::total         36170053                       # number of demand (read+write) hits (Count)
system.cpu0.dcache.overallHits::cpu0.data     41410355                       # number of overall hits (Count)
system.cpu0.dcache.overallHits::total        41410355                       # number of overall hits (Count)
system.cpu0.dcache.demandMisses::cpu0.data     12551345                       # number of demand (read+write) misses (Count)
system.cpu0.dcache.demandMisses::total       12551345                       # number of demand (read+write) misses (Count)
system.cpu0.dcache.overallMisses::cpu0.data     12810867                       # number of overall misses (Count)
system.cpu0.dcache.overallMisses::total      12810867                       # number of overall misses (Count)
system.cpu0.dcache.demandMissLatency::cpu0.data 500878014734                       # number of demand (read+write) miss ticks (Tick)
system.cpu0.dcache.demandMissLatency::total 500878014734                       # number of demand (read+write) miss ticks (Tick)
system.cpu0.dcache.overallMissLatency::cpu0.data 500878014734                       # number of overall miss ticks (Tick)
system.cpu0.dcache.overallMissLatency::total 500878014734                       # number of overall miss ticks (Tick)
system.cpu0.dcache.demandAccesses::cpu0.data     48721398                       # number of demand (read+write) accesses (Count)
system.cpu0.dcache.demandAccesses::total     48721398                       # number of demand (read+write) accesses (Count)
system.cpu0.dcache.overallAccesses::cpu0.data     54221222                       # number of overall (read+write) accesses (Count)
system.cpu0.dcache.overallAccesses::total     54221222                       # number of overall (read+write) accesses (Count)
system.cpu0.dcache.demandMissRate::cpu0.data     0.257615                       # miss rate for demand accesses (Ratio)
system.cpu0.dcache.demandMissRate::total     0.257615                       # miss rate for demand accesses (Ratio)
system.cpu0.dcache.overallMissRate::cpu0.data     0.236270                       # miss rate for overall accesses (Ratio)
system.cpu0.dcache.overallMissRate::total     0.236270                       # miss rate for overall accesses (Ratio)
system.cpu0.dcache.demandAvgMissLatency::cpu0.data 39906.321971                       # average overall miss latency in ticks ((Tick/Count))
system.cpu0.dcache.demandAvgMissLatency::total 39906.321971                       # average overall miss latency in ticks ((Tick/Count))
system.cpu0.dcache.overallAvgMissLatency::cpu0.data 39097.901394                       # average overall miss latency ((Tick/Count))
system.cpu0.dcache.overallAvgMissLatency::total 39097.901394                       # average overall miss latency ((Tick/Count))
system.cpu0.dcache.blockedCycles::no_mshrs     41755798                       # number of cycles access was blocked (Cycle)
system.cpu0.dcache.blockedCycles::no_targets         2071                       # number of cycles access was blocked (Cycle)
system.cpu0.dcache.blockedCauses::no_mshrs       509513                       # number of times access was blocked (Count)
system.cpu0.dcache.blockedCauses::no_targets           18                       # number of times access was blocked (Count)
system.cpu0.dcache.avgBlocked::no_mshrs     81.952370                       # average number of cycles each access was blocked ((Cycle/Count))
system.cpu0.dcache.avgBlocked::no_targets   115.055556                       # average number of cycles each access was blocked ((Cycle/Count))
system.cpu0.dcache.writebacks::writebacks      1252091                       # number of writebacks (Count)
system.cpu0.dcache.writebacks::total          1252091                       # number of writebacks (Count)
system.cpu0.dcache.demandMshrHits::cpu0.data      9670706                       # number of demand (read+write) MSHR hits (Count)
system.cpu0.dcache.demandMshrHits::total      9670706                       # number of demand (read+write) MSHR hits (Count)
system.cpu0.dcache.overallMshrHits::cpu0.data      9670706                       # number of overall MSHR hits (Count)
system.cpu0.dcache.overallMshrHits::total      9670706                       # number of overall MSHR hits (Count)
system.cpu0.dcache.demandMshrMisses::cpu0.data      2880639                       # number of demand (read+write) MSHR misses (Count)
system.cpu0.dcache.demandMshrMisses::total      2880639                       # number of demand (read+write) MSHR misses (Count)
system.cpu0.dcache.overallMshrMisses::cpu0.data      3130634                       # number of overall MSHR misses (Count)
system.cpu0.dcache.overallMshrMisses::total      3130634                       # number of overall MSHR misses (Count)
system.cpu0.dcache.demandMshrMissLatency::cpu0.data 257541681734                       # number of demand (read+write) MSHR miss ticks (Tick)
system.cpu0.dcache.demandMshrMissLatency::total 257541681734                       # number of demand (read+write) MSHR miss ticks (Tick)
system.cpu0.dcache.overallMshrMissLatency::cpu0.data 278549854484                       # number of overall MSHR miss ticks (Tick)
system.cpu0.dcache.overallMshrMissLatency::total 278549854484                       # number of overall MSHR miss ticks (Tick)
system.cpu0.dcache.demandMshrMissRate::cpu0.data     0.059125                       # mshr miss ratio for demand accesses (Ratio)
system.cpu0.dcache.demandMshrMissRate::total     0.059125                       # mshr miss ratio for demand accesses (Ratio)
system.cpu0.dcache.overallMshrMissRate::cpu0.data     0.057738                       # mshr miss ratio for overall accesses (Ratio)
system.cpu0.dcache.overallMshrMissRate::total     0.057738                       # mshr miss ratio for overall accesses (Ratio)
system.cpu0.dcache.demandAvgMshrMissLatency::cpu0.data 89404.358454                       # average overall mshr miss latency ((Tick/Count))
system.cpu0.dcache.demandAvgMshrMissLatency::total 89404.358454                       # average overall mshr miss latency ((Tick/Count))
system.cpu0.dcache.overallAvgMshrMissLatency::cpu0.data 88975.541211                       # average overall mshr miss latency ((Tick/Count))
system.cpu0.dcache.overallAvgMshrMissLatency::total 88975.541211                       # average overall mshr miss latency ((Tick/Count))
system.cpu0.dcache.replacements               3129521                       # number of replacements (Count)
system.cpu0.dcache.LockedRMWReadReq.hits::cpu0.data          126                       # number of LockedRMWReadReq hits (Count)
system.cpu0.dcache.LockedRMWReadReq.hits::total          126                       # number of LockedRMWReadReq hits (Count)
system.cpu0.dcache.LockedRMWReadReq.misses::cpu0.data           42                       # number of LockedRMWReadReq misses (Count)
system.cpu0.dcache.LockedRMWReadReq.misses::total           42                       # number of LockedRMWReadReq misses (Count)
system.cpu0.dcache.LockedRMWReadReq.missLatency::cpu0.data       260250                       # number of LockedRMWReadReq miss ticks (Tick)
system.cpu0.dcache.LockedRMWReadReq.missLatency::total       260250                       # number of LockedRMWReadReq miss ticks (Tick)
system.cpu0.dcache.LockedRMWReadReq.accesses::cpu0.data          168                       # number of LockedRMWReadReq accesses(hits+misses) (Count)
system.cpu0.dcache.LockedRMWReadReq.accesses::total          168                       # number of LockedRMWReadReq accesses(hits+misses) (Count)
system.cpu0.dcache.LockedRMWReadReq.missRate::cpu0.data     0.250000                       # miss rate for LockedRMWReadReq accesses (Ratio)
system.cpu0.dcache.LockedRMWReadReq.missRate::total     0.250000                       # miss rate for LockedRMWReadReq accesses (Ratio)
system.cpu0.dcache.LockedRMWReadReq.avgMissLatency::cpu0.data  6196.428571                       # average LockedRMWReadReq miss latency ((Tick/Count))
system.cpu0.dcache.LockedRMWReadReq.avgMissLatency::total  6196.428571                       # average LockedRMWReadReq miss latency ((Tick/Count))
system.cpu0.dcache.LockedRMWReadReq.mshrMisses::cpu0.data           42                       # number of LockedRMWReadReq MSHR misses (Count)
system.cpu0.dcache.LockedRMWReadReq.mshrMisses::total           42                       # number of LockedRMWReadReq MSHR misses (Count)
system.cpu0.dcache.LockedRMWReadReq.mshrMissLatency::cpu0.data       852750                       # number of LockedRMWReadReq MSHR miss ticks (Tick)
system.cpu0.dcache.LockedRMWReadReq.mshrMissLatency::total       852750                       # number of LockedRMWReadReq MSHR miss ticks (Tick)
system.cpu0.dcache.LockedRMWReadReq.mshrMissRate::cpu0.data     0.250000                       # mshr miss rate for LockedRMWReadReq accesses (Ratio)
system.cpu0.dcache.LockedRMWReadReq.mshrMissRate::total     0.250000                       # mshr miss rate for LockedRMWReadReq accesses (Ratio)
system.cpu0.dcache.LockedRMWReadReq.avgMshrMissLatency::cpu0.data 20303.571429                       # average LockedRMWReadReq mshr miss latency ((Tick/Count))
system.cpu0.dcache.LockedRMWReadReq.avgMshrMissLatency::total 20303.571429                       # average LockedRMWReadReq mshr miss latency ((Tick/Count))
system.cpu0.dcache.LockedRMWWriteReq.hits::cpu0.data          168                       # number of LockedRMWWriteReq hits (Count)
system.cpu0.dcache.LockedRMWWriteReq.hits::total          168                       # number of LockedRMWWriteReq hits (Count)
system.cpu0.dcache.LockedRMWWriteReq.accesses::cpu0.data          168                       # number of LockedRMWWriteReq accesses(hits+misses) (Count)
system.cpu0.dcache.LockedRMWWriteReq.accesses::total          168                       # number of LockedRMWWriteReq accesses(hits+misses) (Count)
system.cpu0.dcache.ReadReq.hits::cpu0.data     27314905                       # number of ReadReq hits (Count)
system.cpu0.dcache.ReadReq.hits::total       27314905                       # number of ReadReq hits (Count)
system.cpu0.dcache.ReadReq.misses::cpu0.data     11362485                       # number of ReadReq misses (Count)
system.cpu0.dcache.ReadReq.misses::total     11362485                       # number of ReadReq misses (Count)
system.cpu0.dcache.ReadReq.missLatency::cpu0.data 402963178500                       # number of ReadReq miss ticks (Tick)
system.cpu0.dcache.ReadReq.missLatency::total 402963178500                       # number of ReadReq miss ticks (Tick)
system.cpu0.dcache.ReadReq.accesses::cpu0.data     38677390                       # number of ReadReq accesses(hits+misses) (Count)
system.cpu0.dcache.ReadReq.accesses::total     38677390                       # number of ReadReq accesses(hits+misses) (Count)
system.cpu0.dcache.ReadReq.missRate::cpu0.data     0.293776                       # miss rate for ReadReq accesses (Ratio)
system.cpu0.dcache.ReadReq.missRate::total     0.293776                       # miss rate for ReadReq accesses (Ratio)
system.cpu0.dcache.ReadReq.avgMissLatency::cpu0.data 35464.352956                       # average ReadReq miss latency ((Tick/Count))
system.cpu0.dcache.ReadReq.avgMissLatency::total 35464.352956                       # average ReadReq miss latency ((Tick/Count))
system.cpu0.dcache.ReadReq.mshrHits::cpu0.data      9670697                       # number of ReadReq MSHR hits (Count)
system.cpu0.dcache.ReadReq.mshrHits::total      9670697                       # number of ReadReq MSHR hits (Count)
system.cpu0.dcache.ReadReq.mshrMisses::cpu0.data      1691788                       # number of ReadReq MSHR misses (Count)
system.cpu0.dcache.ReadReq.mshrMisses::total      1691788                       # number of ReadReq MSHR misses (Count)
system.cpu0.dcache.ReadReq.mshrMissLatency::cpu0.data 160221659500                       # number of ReadReq MSHR miss ticks (Tick)
system.cpu0.dcache.ReadReq.mshrMissLatency::total 160221659500                       # number of ReadReq MSHR miss ticks (Tick)
system.cpu0.dcache.ReadReq.mshrMissRate::cpu0.data     0.043741                       # mshr miss rate for ReadReq accesses (Ratio)
system.cpu0.dcache.ReadReq.mshrMissRate::total     0.043741                       # mshr miss rate for ReadReq accesses (Ratio)
system.cpu0.dcache.ReadReq.avgMshrMissLatency::cpu0.data 94705.518363                       # average ReadReq mshr miss latency ((Tick/Count))
system.cpu0.dcache.ReadReq.avgMshrMissLatency::total 94705.518363                       # average ReadReq mshr miss latency ((Tick/Count))
system.cpu0.dcache.SoftPFReq.hits::cpu0.data      5240302                       # number of SoftPFReq hits (Count)
system.cpu0.dcache.SoftPFReq.hits::total      5240302                       # number of SoftPFReq hits (Count)
system.cpu0.dcache.SoftPFReq.misses::cpu0.data       259522                       # number of SoftPFReq misses (Count)
system.cpu0.dcache.SoftPFReq.misses::total       259522                       # number of SoftPFReq misses (Count)
system.cpu0.dcache.SoftPFReq.accesses::cpu0.data      5499824                       # number of SoftPFReq accesses(hits+misses) (Count)
system.cpu0.dcache.SoftPFReq.accesses::total      5499824                       # number of SoftPFReq accesses(hits+misses) (Count)
system.cpu0.dcache.SoftPFReq.missRate::cpu0.data     0.047187                       # miss rate for SoftPFReq accesses (Ratio)
system.cpu0.dcache.SoftPFReq.missRate::total     0.047187                       # miss rate for SoftPFReq accesses (Ratio)
system.cpu0.dcache.SoftPFReq.mshrMisses::cpu0.data       249995                       # number of SoftPFReq MSHR misses (Count)
system.cpu0.dcache.SoftPFReq.mshrMisses::total       249995                       # number of SoftPFReq MSHR misses (Count)
system.cpu0.dcache.SoftPFReq.mshrMissLatency::cpu0.data  21008172750                       # number of SoftPFReq MSHR miss ticks (Tick)
system.cpu0.dcache.SoftPFReq.mshrMissLatency::total  21008172750                       # number of SoftPFReq MSHR miss ticks (Tick)
system.cpu0.dcache.SoftPFReq.mshrMissRate::cpu0.data     0.045455                       # mshr miss rate for SoftPFReq accesses (Ratio)
system.cpu0.dcache.SoftPFReq.mshrMissRate::total     0.045455                       # mshr miss rate for SoftPFReq accesses (Ratio)
system.cpu0.dcache.SoftPFReq.avgMshrMissLatency::cpu0.data 84034.371687                       # average SoftPFReq mshr miss latency ((Tick/Count))
system.cpu0.dcache.SoftPFReq.avgMshrMissLatency::total 84034.371687                       # average SoftPFReq mshr miss latency ((Tick/Count))
system.cpu0.dcache.WriteReq.hits::cpu0.data      8855148                       # number of WriteReq hits (Count)
system.cpu0.dcache.WriteReq.hits::total       8855148                       # number of WriteReq hits (Count)
system.cpu0.dcache.WriteReq.misses::cpu0.data      1188860                       # number of WriteReq misses (Count)
system.cpu0.dcache.WriteReq.misses::total      1188860                       # number of WriteReq misses (Count)
system.cpu0.dcache.WriteReq.missLatency::cpu0.data  97914836234                       # number of WriteReq miss ticks (Tick)
system.cpu0.dcache.WriteReq.missLatency::total  97914836234                       # number of WriteReq miss ticks (Tick)
system.cpu0.dcache.WriteReq.accesses::cpu0.data     10044008                       # number of WriteReq accesses(hits+misses) (Count)
system.cpu0.dcache.WriteReq.accesses::total     10044008                       # number of WriteReq accesses(hits+misses) (Count)
system.cpu0.dcache.WriteReq.missRate::cpu0.data     0.118365                       # miss rate for WriteReq accesses (Ratio)
system.cpu0.dcache.WriteReq.missRate::total     0.118365                       # miss rate for WriteReq accesses (Ratio)
system.cpu0.dcache.WriteReq.avgMissLatency::cpu0.data 82360.274746                       # average WriteReq miss latency ((Tick/Count))
system.cpu0.dcache.WriteReq.avgMissLatency::total 82360.274746                       # average WriteReq miss latency ((Tick/Count))
system.cpu0.dcache.WriteReq.mshrHits::cpu0.data            9                       # number of WriteReq MSHR hits (Count)
system.cpu0.dcache.WriteReq.mshrHits::total            9                       # number of WriteReq MSHR hits (Count)
system.cpu0.dcache.WriteReq.mshrMisses::cpu0.data      1188851                       # number of WriteReq MSHR misses (Count)
system.cpu0.dcache.WriteReq.mshrMisses::total      1188851                       # number of WriteReq MSHR misses (Count)
system.cpu0.dcache.WriteReq.mshrMissLatency::cpu0.data  97320022234                       # number of WriteReq MSHR miss ticks (Tick)
system.cpu0.dcache.WriteReq.mshrMissLatency::total  97320022234                       # number of WriteReq MSHR miss ticks (Tick)
system.cpu0.dcache.WriteReq.mshrMissRate::cpu0.data     0.118364                       # mshr miss rate for WriteReq accesses (Ratio)
system.cpu0.dcache.WriteReq.mshrMissRate::total     0.118364                       # mshr miss rate for WriteReq accesses (Ratio)
system.cpu0.dcache.WriteReq.avgMshrMissLatency::cpu0.data 81860.571454                       # average WriteReq mshr miss latency ((Tick/Count))
system.cpu0.dcache.WriteReq.avgMshrMissLatency::total 81860.571454                       # average WriteReq mshr miss latency ((Tick/Count))
system.cpu0.dcache.power_state.pwrStateResidencyTicks::UNDEFINED 133638169750                       # Cumulative time (in ticks) in various power states (Tick)
system.cpu0.dcache.tags.tagsInUse         1023.552568                       # Average ticks per tags in use ((Tick/Count))
system.cpu0.dcache.tags.totalRefs            44541330                       # Total number of references to valid blocks. (Count)
system.cpu0.dcache.tags.sampledRefs           3130598                       # Sample count of references to valid blocks. (Count)
system.cpu0.dcache.tags.avgRefs             14.227739                       # Average number of references to valid blocks. ((Count/Count))
system.cpu0.dcache.tags.warmupTick             168250                       # The tick when the warmup percentage was hit. (Tick)
system.cpu0.dcache.tags.occupancies::cpu0.data  1023.552568                       # Average occupied blocks per tick, per requestor ((Count/Tick))
system.cpu0.dcache.tags.avgOccs::cpu0.data     0.999563                       # Average percentage of cache occupancy ((Ratio/Tick))
system.cpu0.dcache.tags.avgOccs::total       0.999563                       # Average percentage of cache occupancy ((Ratio/Tick))
system.cpu0.dcache.tags.occupanciesTaskId::1024         1024                       # Occupied blocks per task id (Count)
system.cpu0.dcache.tags.ageTaskId_1024::0          137                       # Occupied blocks per task id, per block age (Count)
system.cpu0.dcache.tags.ageTaskId_1024::1          886                       # Occupied blocks per task id, per block age (Count)
system.cpu0.dcache.tags.ageTaskId_1024::4            1                       # Occupied blocks per task id, per block age (Count)
system.cpu0.dcache.tags.ratioOccsTaskId::1024            1                       # Ratio of occupied blocks and all blocks, per task id (Ratio)
system.cpu0.dcache.tags.tagAccesses         111573714                       # Number of tag accesses (Count)
system.cpu0.dcache.tags.dataAccesses        111573714                       # Number of data accesses (Count)
system.cpu0.dcache.tags.power_state.pwrStateResidencyTicks::UNDEFINED 133638169750                       # Cumulative time (in ticks) in various power states (Tick)
system.cpu0.decode.idleCycles                 6261751                       # Number of cycles decode is idle (Cycle)
system.cpu0.decode.blockedCycles            499555771                       # Number of cycles decode is blocked (Cycle)
system.cpu0.decode.runCycles                 20928715                       # Number of cycles decode is running (Cycle)
system.cpu0.decode.unblockCycles              6395696                       # Number of cycles decode is unblocking (Cycle)
system.cpu0.decode.squashCycles               1011364                       # Number of cycles decode is squashing (Cycle)
system.cpu0.decode.branchResolved             6521741                       # Number of times decode resolved a branch (Count)
system.cpu0.decode.branchMispred                 1347                       # Number of times decode detected a branch misprediction (Count)
system.cpu0.decode.decodedInsts             208447097                       # Number of instructions handled by decode (Count)
system.cpu0.decode.squashedInsts                 6500                       # Number of squashed instructions handled by decode (Count)
system.cpu0.dtb_walker_cache.blockedCycles::no_mshrs            0                       # number of cycles access was blocked (Cycle)
system.cpu0.dtb_walker_cache.blockedCycles::no_targets            0                       # number of cycles access was blocked (Cycle)
system.cpu0.dtb_walker_cache.blockedCauses::no_mshrs            0                       # number of times access was blocked (Count)
system.cpu0.dtb_walker_cache.blockedCauses::no_targets            0                       # number of times access was blocked (Count)
system.cpu0.dtb_walker_cache.avgBlocked::no_mshrs          nan                       # average number of cycles each access was blocked ((Cycle/Count))
system.cpu0.dtb_walker_cache.avgBlocked::no_targets          nan                       # average number of cycles each access was blocked ((Cycle/Count))
system.cpu0.dtb_walker_cache.replacements            0                       # number of replacements (Count)
system.cpu0.dtb_walker_cache.power_state.pwrStateResidencyTicks::UNDEFINED 133638169750                       # Cumulative time (in ticks) in various power states (Tick)
system.cpu0.dtb_walker_cache.tags.tagsInUse            0                       # Average ticks per tags in use ((Tick/Count))
system.cpu0.dtb_walker_cache.tags.totalRefs            0                       # Total number of references to valid blocks. (Count)
system.cpu0.dtb_walker_cache.tags.sampledRefs            0                       # Sample count of references to valid blocks. (Count)
system.cpu0.dtb_walker_cache.tags.avgRefs          nan                       # Average number of references to valid blocks. ((Count/Count))
system.cpu0.dtb_walker_cache.tags.warmupTick            0                       # The tick when the warmup percentage was hit. (Tick)
system.cpu0.dtb_walker_cache.tags.tagAccesses            0                       # Number of tag accesses (Count)
system.cpu0.dtb_walker_cache.tags.dataAccesses            0                       # Number of data accesses (Count)
system.cpu0.dtb_walker_cache.tags.power_state.pwrStateResidencyTicks::UNDEFINED 133638169750                       # Cumulative time (in ticks) in various power states (Tick)
system.cpu0.fetch.icacheStallCycles          15189828                       # Number of cycles fetch is stalled on an Icache miss (Cycle)
system.cpu0.fetch.insts                     114917170                       # Number of instructions fetch has processed (Count)
system.cpu0.fetch.branches                   10643083                       # Number of branches that fetch encountered (Count)
system.cpu0.fetch.predictedBranches           7549884                       # Number of branches that fetch has predicted taken (Count)
system.cpu0.fetch.cycles                    517942638                       # Number of cycles fetch has run and was not squashing or blocked (Cycle)
system.cpu0.fetch.squashCycles                2025390                       # Number of cycles fetch has spent squashing (Cycle)
system.cpu0.fetch.miscStallCycles                1056                       # Number of cycles fetch has spent waiting on interrupts, or bad addresses, or out of MSHRs (Cycle)
system.cpu0.fetch.pendingTrapStallCycles         7000                       # Number of stall cycles due to pending traps (Cycle)
system.cpu0.fetch.icacheWaitRetryStallCycles           80                       # Number of stall cycles due to full MSHR (Cycle)
system.cpu0.fetch.cacheLines                 14827629                       # Number of cache lines fetched (Count)
system.cpu0.fetch.icacheSquashes                 3322                       # Number of outstanding Icache misses that were squashed (Count)
system.cpu0.fetch.nisnDist::samples         534153297                       # Number of instructions fetched each cycle (Total) (Count)
system.cpu0.fetch.nisnDist::mean             0.464364                       # Number of instructions fetched each cycle (Total) (Count)
system.cpu0.fetch.nisnDist::stdev            1.765251                       # Number of instructions fetched each cycle (Total) (Count)
system.cpu0.fetch.nisnDist::underflows              0      0.00%      0.00% # Number of instructions fetched each cycle (Total) (Count)
system.cpu0.fetch.nisnDist::0               496048675     92.87%     92.87% # Number of instructions fetched each cycle (Total) (Count)
system.cpu0.fetch.nisnDist::1                  717526      0.13%     93.00% # Number of instructions fetched each cycle (Total) (Count)
system.cpu0.fetch.nisnDist::2                 2640389      0.49%     93.49% # Number of instructions fetched each cycle (Total) (Count)
system.cpu0.fetch.nisnDist::3                 2209417      0.41%     93.91% # Number of instructions fetched each cycle (Total) (Count)
system.cpu0.fetch.nisnDist::4                 1816933      0.34%     94.25% # Number of instructions fetched each cycle (Total) (Count)
system.cpu0.fetch.nisnDist::5                 1144506      0.21%     94.46% # Number of instructions fetched each cycle (Total) (Count)
system.cpu0.fetch.nisnDist::6                 5344261      1.00%     95.46% # Number of instructions fetched each cycle (Total) (Count)
system.cpu0.fetch.nisnDist::7                 3493280      0.65%     96.12% # Number of instructions fetched each cycle (Total) (Count)
system.cpu0.fetch.nisnDist::8                20738310      3.88%    100.00% # Number of instructions fetched each cycle (Total) (Count)
system.cpu0.fetch.nisnDist::overflows               0      0.00%    100.00% # Number of instructions fetched each cycle (Total) (Count)
system.cpu0.fetch.nisnDist::min_value               0                       # Number of instructions fetched each cycle (Total) (Count)
system.cpu0.fetch.nisnDist::max_value               8                       # Number of instructions fetched each cycle (Total) (Count)
system.cpu0.fetch.nisnDist::total           534153297                       # Number of instructions fetched each cycle (Total) (Count)
system.cpu0.fetch.branchRate                 0.019910                       # Number of branch fetches per cycle (Ratio)
system.cpu0.fetch.rate                       0.214978                       # Number of inst fetches per cycle ((Count/Cycle))
system.cpu0.icache.demandHits::cpu0.inst     14824206                       # number of demand (read+write) hits (Count)
system.cpu0.icache.demandHits::total         14824206                       # number of demand (read+write) hits (Count)
system.cpu0.icache.overallHits::cpu0.inst     14824206                       # number of overall hits (Count)
system.cpu0.icache.overallHits::total        14824206                       # number of overall hits (Count)
system.cpu0.icache.demandMisses::cpu0.inst         3423                       # number of demand (read+write) misses (Count)
system.cpu0.icache.demandMisses::total           3423                       # number of demand (read+write) misses (Count)
system.cpu0.icache.overallMisses::cpu0.inst         3423                       # number of overall misses (Count)
system.cpu0.icache.overallMisses::total          3423                       # number of overall misses (Count)
system.cpu0.icache.demandMissLatency::cpu0.inst    227947249                       # number of demand (read+write) miss ticks (Tick)
system.cpu0.icache.demandMissLatency::total    227947249                       # number of demand (read+write) miss ticks (Tick)
system.cpu0.icache.overallMissLatency::cpu0.inst    227947249                       # number of overall miss ticks (Tick)
system.cpu0.icache.overallMissLatency::total    227947249                       # number of overall miss ticks (Tick)
system.cpu0.icache.demandAccesses::cpu0.inst     14827629                       # number of demand (read+write) accesses (Count)
system.cpu0.icache.demandAccesses::total     14827629                       # number of demand (read+write) accesses (Count)
system.cpu0.icache.overallAccesses::cpu0.inst     14827629                       # number of overall (read+write) accesses (Count)
system.cpu0.icache.overallAccesses::total     14827629                       # number of overall (read+write) accesses (Count)
system.cpu0.icache.demandMissRate::cpu0.inst     0.000231                       # miss rate for demand accesses (Ratio)
system.cpu0.icache.demandMissRate::total     0.000231                       # miss rate for demand accesses (Ratio)
system.cpu0.icache.overallMissRate::cpu0.inst     0.000231                       # miss rate for overall accesses (Ratio)
system.cpu0.icache.overallMissRate::total     0.000231                       # miss rate for overall accesses (Ratio)
system.cpu0.icache.demandAvgMissLatency::cpu0.inst 66592.827637                       # average overall miss latency in ticks ((Tick/Count))
system.cpu0.icache.demandAvgMissLatency::total 66592.827637                       # average overall miss latency in ticks ((Tick/Count))
system.cpu0.icache.overallAvgMissLatency::cpu0.inst 66592.827637                       # average overall miss latency ((Tick/Count))
system.cpu0.icache.overallAvgMissLatency::total 66592.827637                       # average overall miss latency ((Tick/Count))
system.cpu0.icache.blockedCycles::no_mshrs          911                       # number of cycles access was blocked (Cycle)
system.cpu0.icache.blockedCycles::no_targets            0                       # number of cycles access was blocked (Cycle)
system.cpu0.icache.blockedCauses::no_mshrs           19                       # number of times access was blocked (Count)
system.cpu0.icache.blockedCauses::no_targets            0                       # number of times access was blocked (Count)
system.cpu0.icache.avgBlocked::no_mshrs     47.947368                       # average number of cycles each access was blocked ((Cycle/Count))
system.cpu0.icache.avgBlocked::no_targets          nan                       # average number of cycles each access was blocked ((Cycle/Count))
system.cpu0.icache.writebacks::writebacks         2155                       # number of writebacks (Count)
system.cpu0.icache.writebacks::total             2155                       # number of writebacks (Count)
system.cpu0.icache.demandMshrHits::cpu0.inst          742                       # number of demand (read+write) MSHR hits (Count)
system.cpu0.icache.demandMshrHits::total          742                       # number of demand (read+write) MSHR hits (Count)
system.cpu0.icache.overallMshrHits::cpu0.inst          742                       # number of overall MSHR hits (Count)
system.cpu0.icache.overallMshrHits::total          742                       # number of overall MSHR hits (Count)
system.cpu0.icache.demandMshrMisses::cpu0.inst         2681                       # number of demand (read+write) MSHR misses (Count)
system.cpu0.icache.demandMshrMisses::total         2681                       # number of demand (read+write) MSHR misses (Count)
system.cpu0.icache.overallMshrMisses::cpu0.inst         2681                       # number of overall MSHR misses (Count)
system.cpu0.icache.overallMshrMisses::total         2681                       # number of overall MSHR misses (Count)
system.cpu0.icache.demandMshrMissLatency::cpu0.inst    178756000                       # number of demand (read+write) MSHR miss ticks (Tick)
system.cpu0.icache.demandMshrMissLatency::total    178756000                       # number of demand (read+write) MSHR miss ticks (Tick)
system.cpu0.icache.overallMshrMissLatency::cpu0.inst    178756000                       # number of overall MSHR miss ticks (Tick)
system.cpu0.icache.overallMshrMissLatency::total    178756000                       # number of overall MSHR miss ticks (Tick)
system.cpu0.icache.demandMshrMissRate::cpu0.inst     0.000181                       # mshr miss ratio for demand accesses (Ratio)
system.cpu0.icache.demandMshrMissRate::total     0.000181                       # mshr miss ratio for demand accesses (Ratio)
system.cpu0.icache.overallMshrMissRate::cpu0.inst     0.000181                       # mshr miss ratio for overall accesses (Ratio)
system.cpu0.icache.overallMshrMissRate::total     0.000181                       # mshr miss ratio for overall accesses (Ratio)
system.cpu0.icache.demandAvgMshrMissLatency::cpu0.inst 66675.121223                       # average overall mshr miss latency ((Tick/Count))
system.cpu0.icache.demandAvgMshrMissLatency::total 66675.121223                       # average overall mshr miss latency ((Tick/Count))
system.cpu0.icache.overallAvgMshrMissLatency::cpu0.inst 66675.121223                       # average overall mshr miss latency ((Tick/Count))
system.cpu0.icache.overallAvgMshrMissLatency::total 66675.121223                       # average overall mshr miss latency ((Tick/Count))
system.cpu0.icache.replacements                  2155                       # number of replacements (Count)
system.cpu0.icache.ReadReq.hits::cpu0.inst     14824206                       # number of ReadReq hits (Count)
system.cpu0.icache.ReadReq.hits::total       14824206                       # number of ReadReq hits (Count)
system.cpu0.icache.ReadReq.misses::cpu0.inst         3423                       # number of ReadReq misses (Count)
system.cpu0.icache.ReadReq.misses::total         3423                       # number of ReadReq misses (Count)
system.cpu0.icache.ReadReq.missLatency::cpu0.inst    227947249                       # number of ReadReq miss ticks (Tick)
system.cpu0.icache.ReadReq.missLatency::total    227947249                       # number of ReadReq miss ticks (Tick)
system.cpu0.icache.ReadReq.accesses::cpu0.inst     14827629                       # number of ReadReq accesses(hits+misses) (Count)
system.cpu0.icache.ReadReq.accesses::total     14827629                       # number of ReadReq accesses(hits+misses) (Count)
system.cpu0.icache.ReadReq.missRate::cpu0.inst     0.000231                       # miss rate for ReadReq accesses (Ratio)
system.cpu0.icache.ReadReq.missRate::total     0.000231                       # miss rate for ReadReq accesses (Ratio)
system.cpu0.icache.ReadReq.avgMissLatency::cpu0.inst 66592.827637                       # average ReadReq miss latency ((Tick/Count))
system.cpu0.icache.ReadReq.avgMissLatency::total 66592.827637                       # average ReadReq miss latency ((Tick/Count))
system.cpu0.icache.ReadReq.mshrHits::cpu0.inst          742                       # number of ReadReq MSHR hits (Count)
system.cpu0.icache.ReadReq.mshrHits::total          742                       # number of ReadReq MSHR hits (Count)
system.cpu0.icache.ReadReq.mshrMisses::cpu0.inst         2681                       # number of ReadReq MSHR misses (Count)
system.cpu0.icache.ReadReq.mshrMisses::total         2681                       # number of ReadReq MSHR misses (Count)
system.cpu0.icache.ReadReq.mshrMissLatency::cpu0.inst    178756000                       # number of ReadReq MSHR miss ticks (Tick)
system.cpu0.icache.ReadReq.mshrMissLatency::total    178756000                       # number of ReadReq MSHR miss ticks (Tick)
system.cpu0.icache.ReadReq.mshrMissRate::cpu0.inst     0.000181                       # mshr miss rate for ReadReq accesses (Ratio)
system.cpu0.icache.ReadReq.mshrMissRate::total     0.000181                       # mshr miss rate for ReadReq accesses (Ratio)
system.cpu0.icache.ReadReq.avgMshrMissLatency::cpu0.inst 66675.121223                       # average ReadReq mshr miss latency ((Tick/Count))
system.cpu0.icache.ReadReq.avgMshrMissLatency::total 66675.121223                       # average ReadReq mshr miss latency ((Tick/Count))
system.cpu0.icache.power_state.pwrStateResidencyTicks::UNDEFINED 133638169750                       # Cumulative time (in ticks) in various power states (Tick)
system.cpu0.icache.tags.tagsInUse          509.398166                       # Average ticks per tags in use ((Tick/Count))
system.cpu0.icache.tags.totalRefs            14826886                       # Total number of references to valid blocks. (Count)
system.cpu0.icache.tags.sampledRefs              2680                       # Sample count of references to valid blocks. (Count)
system.cpu0.icache.tags.avgRefs           5532.420149                       # Average number of references to valid blocks. ((Count/Count))
system.cpu0.icache.tags.warmupTick              85250                       # The tick when the warmup percentage was hit. (Tick)
system.cpu0.icache.tags.occupancies::cpu0.inst   509.398166                       # Average occupied blocks per tick, per requestor ((Count/Tick))
system.cpu0.icache.tags.avgOccs::cpu0.inst     0.994918                       # Average percentage of cache occupancy ((Ratio/Tick))
system.cpu0.icache.tags.avgOccs::total       0.994918                       # Average percentage of cache occupancy ((Ratio/Tick))
system.cpu0.icache.tags.occupanciesTaskId::1024          512                       # Occupied blocks per task id (Count)
system.cpu0.icache.tags.ageTaskId_1024::0          105                       # Occupied blocks per task id, per block age (Count)
system.cpu0.icache.tags.ageTaskId_1024::1           66                       # Occupied blocks per task id, per block age (Count)
system.cpu0.icache.tags.ageTaskId_1024::4          341                       # Occupied blocks per task id, per block age (Count)
system.cpu0.icache.tags.ratioOccsTaskId::1024            1                       # Ratio of occupied blocks and all blocks, per task id (Ratio)
system.cpu0.icache.tags.tagAccesses          29657938                       # Number of tag accesses (Count)
system.cpu0.icache.tags.dataAccesses         29657938                       # Number of data accesses (Count)
system.cpu0.icache.tags.power_state.pwrStateResidencyTicks::UNDEFINED 133638169750                       # Cumulative time (in ticks) in various power states (Tick)
system.cpu0.iew.idleCycles                          0                       # Number of cycles IEW is idle (Cycle)
system.cpu0.iew.squashCycles                  1011364                       # Number of cycles IEW is squashing (Cycle)
system.cpu0.iew.blockCycles                  45706933                       # Number of cycles IEW is blocking (Cycle)
system.cpu0.iew.unblockCycles                41749240                       # Number of cycles IEW is unblocking (Cycle)
system.cpu0.iew.dispatchedInsts             197839938                       # Number of instructions dispatched to IQ (Count)
system.cpu0.iew.dispSquashedInsts                1107                       # Number of squashed instructions skipped by dispatch (Count)
system.cpu0.iew.dispLoadInsts                44213599                       # Number of dispatched load instructions (Count)
system.cpu0.iew.dispStoreInsts               43066132                       # Number of dispatched store instructions (Count)
system.cpu0.iew.dispNonSpecInsts                  526                       # Number of dispatched non-speculative instructions (Count)
system.cpu0.iew.iqFullEvents                     5044                       # Number of times the IQ has become full, causing a stall (Count)
system.cpu0.iew.lsqFullEvents                41817310                       # Number of times the LSQ has become full, causing a stall (Count)
system.cpu0.iew.memOrderViolationEvents           364                       # Number of memory order violations (Count)
system.cpu0.iew.predictedTakenIncorrect          2700                       # Number of branches that were predicted taken incorrectly (Count)
system.cpu0.iew.predictedNotTakenIncorrect         7212                       # Number of branches that were predicted not taken incorrectly (Count)
system.cpu0.iew.branchMispredicts                9912                       # Number of branch mispredicts detected at execute (Count)
system.cpu0.iew.instsToCommit               197681084                       # Cumulative count of insts sent to commit (Count)
[...]
system.mem_ctrls7.dram.bytesRead             47051296                       # Total bytes read (Byte)
system.mem_ctrls7.dram.bytesWritten          20009504                       # Total bytes written (Byte)
system.mem_ctrls7.dram.avgRdBW             352.079769                       # Average DRAM read bandwidth in MiBytes/s ((Byte/Second))
system.mem_ctrls7.dram.avgWrBW             149.728959                       # Average DRAM write bandwidth in MiBytes/s ((Byte/Second))
system.mem_ctrls7.dram.peakBW                16000.00                       # Theoretical peak bandwidth in MiByte/s ((Byte/Second))
system.mem_ctrls7.dram.busUtil                   3.14                       # Data bus utilization in percentage (Ratio)
system.mem_ctrls7.dram.busUtilRead               2.20                       # Data bus utilization in percentage for reads (Ratio)
system.mem_ctrls7.dram.busUtilWrite              0.94                       # Data bus utilization in percentage for writes (Ratio)
system.mem_ctrls7.dram.pageHitRate              60.17                       # Row buffer hit rate, read and write combined (Ratio)
system.mem_ctrls7.dram.power_state.pwrStateResidencyTicks::UNDEFINED 133638169750                       # Cumulative time (in ticks) in various power states (Tick)
system.mem_ctrls7.dram.rank0.actEnergy              0                       # Energy for activate commands per rank (pJ) (Joule)
system.mem_ctrls7.dram.rank0.preEnergy              0                       # Energy for precharge commands per rank (pJ) (Joule)
system.mem_ctrls7.dram.rank0.readEnergy             0                       # Energy for read commands per rank (pJ) (Joule)
system.mem_ctrls7.dram.rank0.writeEnergy            0                       # Energy for write commands per rank (pJ) (Joule)
system.mem_ctrls7.dram.rank0.refreshEnergy            0                       # Energy for refresh commands per rank (pJ) (Joule)
system.mem_ctrls7.dram.rank0.actBackEnergy            0                       # Energy for active background per rank (pJ) (Joule)
system.mem_ctrls7.dram.rank0.preBackEnergy            0                       # Energy for precharge background per rank (pJ) (Joule)
system.mem_ctrls7.dram.rank0.actPowerDownEnergy            0                       # Energy for active power-down per rank (pJ) (Joule)
system.mem_ctrls7.dram.rank0.prePowerDownEnergy            0                       # Energy for precharge power-down per rank (pJ) (Joule)
system.mem_ctrls7.dram.rank0.selfRefreshEnergy            0                       # Energy for self refresh per rank (pJ) (Joule)
system.mem_ctrls7.dram.rank0.totalEnergy            0                       # Total energy per rank (pJ) (Joule)
system.mem_ctrls7.dram.rank0.averagePower            0                       # Core power per rank (mW) (Watt)
system.mem_ctrls7.dram.rank0.totalIdleTime            0                       # Total Idle time Per DRAM Rank (Tick)
system.mem_ctrls7.dram.rank0.pwrStateTime::IDLE  74334363594                       # Time in different power states (Tick)
system.mem_ctrls7.dram.rank0.pwrStateTime::REF   7565580000                       # Time in different power states (Tick)
system.mem_ctrls7.dram.rank0.pwrStateTime::SREF            0                       # Time in different power states (Tick)
system.mem_ctrls7.dram.rank0.pwrStateTime::PRE_PDN            0                       # Time in different power states (Tick)
system.mem_ctrls7.dram.rank0.pwrStateTime::ACT  51738226156                       # Time in different power states (Tick)
system.mem_ctrls7.dram.rank0.pwrStateTime::ACT_PDN            0                       # Time in different power states (Tick)
system.mem_ctrls7.power_state.pwrStateResidencyTicks::UNDEFINED 133638169750                       # Cumulative time (in ticks) in various power states (Tick)
system.membus.transDist::ReadResp             3505460                       # Transaction distribution (Count)
system.membus.transDist::WritebackDirty       2501491                       # Transaction distribution (Count)
system.membus.transDist::CleanEvict           3345916                       # Transaction distribution (Count)
system.membus.transDist::UpgradeReq                30                       # Transaction distribution (Count)
system.membus.transDist::ReadExReq            2376205                       # Transaction distribution (Count)
system.membus.transDist::ReadExResp           2376205                       # Transaction distribution (Count)
system.membus.transDist::ReadSharedReq        3505460                       # Transaction distribution (Count)
system.membus.pktCount_system.l2.mem_side_port::system.mem_ctrls0.port      2201491                       # Packet count per connected requestor and responder (Count)
system.membus.pktCount_system.l2.mem_side_port::system.mem_ctrls1.port      2201134                       # Packet count per connected requestor and responder (Count)
system.membus.pktCount_system.l2.mem_side_port::system.mem_ctrls2.port      2201431                       # Packet count per connected requestor and responder (Count)
system.membus.pktCount_system.l2.mem_side_port::system.mem_ctrls3.port      2201398                       # Packet count per connected requestor and responder (Count)
system.membus.pktCount_system.l2.mem_side_port::system.mem_ctrls4.port      2201399                       # Packet count per connected requestor and responder (Count)
system.membus.pktCount_system.l2.mem_side_port::system.mem_ctrls5.port      2201231                       # Packet count per connected requestor and responder (Count)
system.membus.pktCount_system.l2.mem_side_port::system.mem_ctrls6.port      2201410                       # Packet count per connected requestor and responder (Count)
system.membus.pktCount_system.l2.mem_side_port::system.mem_ctrls7.port      2201273                       # Packet count per connected requestor and responder (Count)
system.membus.pktCount_system.l2.mem_side_port::total     17610767                       # Packet count per connected requestor and responder (Count)
system.membus.pktCount::total                17610767                       # Packet count per connected requestor and responder (Count)
system.membus.pktSize_system.l2.mem_side_port::system.mem_ctrls0.port     67069568                       # Cumulative packet size per connected requestor and responder (Byte)
system.membus.pktSize_system.l2.mem_side_port::system.mem_ctrls1.port     67058560                       # Cumulative packet size per connected requestor and responder (Byte)
system.membus.pktSize_system.l2.mem_side_port::system.mem_ctrls2.port     67069120                       # Cumulative packet size per connected requestor and responder (Byte)
system.membus.pktSize_system.l2.mem_side_port::system.mem_ctrls3.port     67065984                       # Cumulative packet size per connected requestor and responder (Byte)
system.membus.pktSize_system.l2.mem_side_port::system.mem_ctrls4.port     67067008                       # Cumulative packet size per connected requestor and responder (Byte)
system.membus.pktSize_system.l2.mem_side_port::system.mem_ctrls5.port     67060928                       # Cumulative packet size per connected requestor and responder (Byte)
system.membus.pktSize_system.l2.mem_side_port::system.mem_ctrls6.port     67068992                       # Cumulative packet size per connected requestor and responder (Byte)
system.membus.pktSize_system.l2.mem_side_port::system.mem_ctrls7.port     67061824                       # Cumulative packet size per connected requestor and responder (Byte)
system.membus.pktSize_system.l2.mem_side_port::total    536521984                       # Cumulative packet size per connected requestor and responder (Byte)
system.membus.pktSize::total                536521984                       # Cumulative packet size per connected requestor and responder (Byte)
system.membus.snoops                               30                       # Total snoops (Count)
system.membus.snoopTraffic                          0                       # Total snoop traffic (Byte)
system.membus.snoopFanout::samples            5881695                       # Request fanout histogram (Count)
system.membus.snoopFanout::mean                     0                       # Request fanout histogram (Count)
system.membus.snoopFanout::stdev                    0                       # Request fanout histogram (Count)
system.membus.snoopFanout::underflows               0      0.00%      0.00% # Request fanout histogram (Count)
system.membus.snoopFanout::0                  5881695    100.00%    100.00% # Request fanout histogram (Count)
system.membus.snoopFanout::1                        0      0.00%    100.00% # Request fanout histogram (Count)
system.membus.snoopFanout::overflows                0      0.00%    100.00% # Request fanout histogram (Count)
system.membus.snoopFanout::min_value                0                       # Request fanout histogram (Count)
system.membus.snoopFanout::max_value                0                       # Request fanout histogram (Count)
system.membus.snoopFanout::total              5881695                       # Request fanout histogram (Count)
system.membus.power_state.pwrStateResidencyTicks::UNDEFINED 133638169750                       # Cumulative time (in ticks) in various power states (Tick)
system.membus.reqLayer10.occupancy         2917013208                       # Layer occupancy (ticks) (Tick)
system.membus.reqLayer10.utilization              0.0                       # Layer utilization (Ratio)
system.membus.reqLayer11.occupancy         2916739162                       # Layer occupancy (ticks) (Tick)
system.membus.reqLayer11.utilization              0.0                       # Layer utilization (Ratio)
system.membus.reqLayer4.occupancy          2915993766                       # Layer occupancy (ticks) (Tick)
system.membus.reqLayer4.utilization               0.0                       # Layer utilization (Ratio)
system.membus.reqLayer5.occupancy          2916380220                       # Layer occupancy (ticks) (Tick)
system.membus.reqLayer5.utilization               0.0                       # Layer utilization (Ratio)
system.membus.reqLayer6.occupancy          2917283444                       # Layer occupancy (ticks) (Tick)
system.membus.reqLayer6.utilization               0.0                       # Layer utilization (Ratio)
system.membus.reqLayer7.occupancy          2916796853                       # Layer occupancy (ticks) (Tick)
system.membus.reqLayer7.utilization               0.0                       # Layer utilization (Ratio)
system.membus.reqLayer8.occupancy          2916511077                       # Layer occupancy (ticks) (Tick)
system.membus.reqLayer8.utilization               0.0                       # Layer utilization (Ratio)
system.membus.reqLayer9.occupancy          2917214150                       # Layer occupancy (ticks) (Tick)
system.membus.reqLayer9.utilization               0.0                       # Layer utilization (Ratio)
system.membus.respLayer1.occupancy        29627975650                       # Layer occupancy (ticks) (Tick)
system.membus.respLayer1.utilization              0.2                       # Layer utilization (Ratio)
system.membus.snoop_filter.totRequests       11729102                       # Total number of requests made to the snoop filter. (Count)
system.membus.snoop_filter.hitSingleRequests      5848364                       # Number of requests hitting in the snoop filter with a single holder of the requested data. (Count)
system.membus.snoop_filter.hitMultiRequests            0                       # Number of requests hitting in the snoop filter with multiple (>1) holders of the requested data. (Count)
system.membus.snoop_filter.totSnoops                0                       # Total number of snoops made to the snoop filter. (Count)
system.membus.snoop_filter.hitSingleSnoops            0                       # Number of snoops hitting in the snoop filter with a single holder of the requested data. (Count)
system.membus.snoop_filter.hitMultiSnoops            0                       # Number of snoops hitting in the snoop filter with multiple (>1) holders of the requested data. (Count)
system.tol2bus.transDist::ReadResp            3507545                       # Transaction distribution (Count)
system.tol2bus.transDist::WritebackDirty      5003532                       # Transaction distribution (Count)
system.tol2bus.transDist::WritebackClean         2159                       # Transaction distribution (Count)
system.tol2bus.transDist::CleanEvict          6724552                       # Transaction distribution (Count)
system.tol2bus.transDist::UpgradeReq              110                       # Transaction distribution (Count)
system.tol2bus.transDist::UpgradeResp             110                       # Transaction distribution (Count)
system.tol2bus.transDist::ReadExReq           2376415                       # Transaction distribution (Count)
system.tol2bus.transDist::ReadExResp          2376415                       # Transaction distribution (Count)
system.tol2bus.transDist::ReadCleanReq           2827                       # Transaction distribution (Count)
system.tol2bus.transDist::ReadSharedReq       3504719                       # Transaction distribution (Count)
system.tol2bus.pktCount_system.cpu0.icache.mem_side_port::system.l2.cpu_side_port         7506                       # Packet count per connected requestor and responder (Count)
system.tol2bus.pktCount_system.cpu0.dcache.mem_side_port::system.l2.cpu_side_port      9390662                       # Packet count per connected requestor and responder (Count)
system.tol2bus.pktCount_system.cpu1.icache.mem_side_port::system.l2.cpu_side_port          291                       # Packet count per connected requestor and responder (Count)
system.tol2bus.pktCount_system.cpu1.dcache.mem_side_port::system.l2.cpu_side_port      8250263                       # Packet count per connected requestor and responder (Count)
system.tol2bus.pktCount::total               17648722                       # Packet count per connected requestor and responder (Count)
system.tol2bus.pktSize_system.cpu0.icache.mem_side_port::system.l2.cpu_side_port       308800                       # Cumulative packet size per connected requestor and responder (Byte)
system.tol2bus.pktSize_system.cpu0.dcache.mem_side_port::system.l2.cpu_side_port    280478848                       # Cumulative packet size per connected requestor and responder (Byte)
system.tol2bus.pktSize_system.cpu1.icache.mem_side_port::system.l2.cpu_side_port         9280                       # Cumulative packet size per connected requestor and responder (Byte)
system.tol2bus.pktSize_system.cpu1.dcache.mem_side_port::system.l2.cpu_side_port    256017280                       # Cumulative packet size per connected requestor and responder (Byte)
system.tol2bus.pktSize::total               536814208                       # Cumulative packet size per connected requestor and responder (Byte)
system.tol2bus.snoops                         5849662                       # Total snoops (Count)
system.tol2bus.snoopTraffic                 160123456                       # Total snoop traffic (Byte)
system.tol2bus.snoopFanout::samples          11733265                       # Request fanout histogram (Count)
system.tol2bus.snoopFanout::mean             0.000343                       # Request fanout histogram (Count)
system.tol2bus.snoopFanout::stdev            0.019058                       # Request fanout histogram (Count)
system.tol2bus.snoopFanout::underflows              0      0.00%      0.00% # Request fanout histogram (Count)
system.tol2bus.snoopFanout::0                11729368     99.97%     99.97% # Request fanout histogram (Count)
system.tol2bus.snoopFanout::1                    3775      0.03%    100.00% # Request fanout histogram (Count)
system.tol2bus.snoopFanout::2                     122      0.00%    100.00% # Request fanout histogram (Count)
system.tol2bus.snoopFanout::3                       0      0.00%    100.00% # Request fanout histogram (Count)
system.tol2bus.snoopFanout::4                       0      0.00%    100.00% # Request fanout histogram (Count)
system.tol2bus.snoopFanout::5                       0      0.00%    100.00% # Request fanout histogram (Count)
system.tol2bus.snoopFanout::6                       0      0.00%    100.00% # Request fanout histogram (Count)
system.tol2bus.snoopFanout::7                       0      0.00%    100.00% # Request fanout histogram (Count)
system.tol2bus.snoopFanout::8                       0      0.00%    100.00% # Request fanout histogram (Count)
system.tol2bus.snoopFanout::overflows               0      0.00%    100.00% # Request fanout histogram (Count)
system.tol2bus.snoopFanout::min_value               0                       # Request fanout histogram (Count)
system.tol2bus.snoopFanout::max_value               2                       # Request fanout histogram (Count)
system.tol2bus.snoopFanout::total            11733265                       # Request fanout histogram (Count)
system.tol2bus.power_state.pwrStateResidencyTicks::UNDEFINED 133638169750                       # Cumulative time (in ticks) in various power states (Tick)
system.tol2bus.reqLayer0.occupancy         4193380498                       # Layer occupancy (ticks) (Tick)
system.tol2bus.reqLayer0.utilization              0.0                       # Layer utilization (Ratio)
system.tol2bus.respLayer0.occupancy           2011743                       # Layer occupancy (ticks) (Tick)
system.tol2bus.respLayer0.utilization             0.0                       # Layer utilization (Ratio)
system.tol2bus.respLayer1.occupancy        2347969744                       # Layer occupancy (ticks) (Tick)
system.tol2bus.respLayer1.utilization             0.0                       # Layer utilization (Ratio)
system.tol2bus.respLayer4.occupancy            112488                       # Layer occupancy (ticks) (Tick)
system.tol2bus.respLayer4.utilization             0.0                       # Layer utilization (Ratio)
system.tol2bus.respLayer5.occupancy        2062910499                       # Layer occupancy (ticks) (Tick)
system.tol2bus.respLayer5.utilization             0.0                       # Layer utilization (Ratio)
system.tol2bus.snoop_filter.totRequests      11765120                       # Total number of requests made to the snoop filter. (Count)
system.tol2bus.snoop_filter.hitSingleRequests      5882005                       # Number of requests hitting in the snoop filter with a single holder of the requested data. (Count)
system.tol2bus.snoop_filter.hitMultiRequests         1010                       # Number of requests hitting in the snoop filter with multiple (>1) holders of the requested data. (Count)
system.tol2bus.snoop_filter.totSnoops            1978                       # Total number of snoops made to the snoop filter. (Count)
system.tol2bus.snoop_filter.hitSingleSnoops         1870                       # Number of snoops hitting in the snoop filter with a single holder of the requested data. (Count)
system.tol2bus.snoop_filter.hitMultiSnoops          108                       # Number of snoops hitting in the snoop filter with multiple (>1) holders of the requested data. (Count)
system.voltage_domain.voltage                       1                       # Voltage in Volts (Volt)
system.workload.inst.arm                            0                       # number of arm instructions executed (Count)
system.workload.inst.quiesce                        0                       # number of quiesce instructions executed (Count)

---------- End Simulation Statistics   ----------
