
---------- Begin Simulation Statistics ----------
simSeconds                                   0.037280                       # Number of seconds simulated (Second)
simTicks                                  37279551500                       # Number of ticks simulated (Tick)
finalTick                                 37279551500                       # Number of ticks from beginning of simulation (restored from checkpoints and never reset) (Tick)
simFreq                                  1000000000000                       # The number of ticks per simulated second ((Tick/Second))
hostSeconds                                   1406.88                       # Real time elapsed on the host (Second)
hostTickRate                                 26498081                       # The number of ticks simulated per host second (ticks/s) ((Tick/Second))
hostMemory                                    7914704                       # Number of bytes of host memory used (Byte)
simInsts                                    118867970                       # Number of instructions simulated (Count)
simOps                                      212698432                       # Number of ops (including micro ops) simulated (Count)
hostInstRate                                    84491                       # Simulator instruction rate (inst/s) ((Count/Second))
hostOpRate                                     151185                       # Simulator op (including micro ops) rate (op/s) ((Count/Second))
system.clk_domain.clock                          1000                       # Clock period in ticks (Tick)
system.cpu0.numCycles                       149118207                       # Number of cpu cycles simulated (Cycle)
system.cpu0.numWorkItemsStarted                     0                       # Number of work items this cpu started (Count)
system.cpu0.numWorkItemsCompleted                   0                       # Number of work items this cpu completed (Count)
system.cpu0.instsAdded                       77108497                       # Number of instructions added to the IQ (excludes non-spec) (Count)
system.cpu0.nonSpecInstsAdded                    1319                       # Number of non-speculative instructions added to the IQ (Count)
system.cpu0.instsIssued                      76994935                       # Number of instructions issued (Count)
system.cpu0.squashedInstsIssued                  2069                       # Number of squashed instructions issued (Count)
system.cpu0.squashedInstsExamined            24498112                       # Number of squashed instructions iterated over during squash; mainly for profiling (Count)
system.cpu0.squashedOperandsExamined           766999                       # Number of squashed operands that are examined and possibly removed from graph (Count)
system.cpu0.squashedNonSpecRemoved                415                       # Number of squashed non-spec instructions that were removed (Count)
system.cpu0.numIssuedDist::samples          148732312                       # Number of insts issued each cycle (Count)
system.cpu0.numIssuedDist::mean              0.517675                       # Number of insts issued each cycle (Count)
system.cpu0.numIssuedDist::stdev             1.521869                       # Number of insts issued each cycle (Count)
system.cpu0.numIssuedDist::underflows               0      0.00%      0.00% # Number of insts issued each cycle (Count)
system.cpu0.numIssuedDist::0                126173500     84.83%     84.83% # Number of insts issued each cycle (Count)
system.cpu0.numIssuedDist::1                  6545171      4.40%     89.23% # Number of insts issued each cycle (Count)
system.cpu0.numIssuedDist::2                  4529548      3.05%     92.28% # Number of insts issued each cycle (Count)
system.cpu0.numIssuedDist::3                  1819014      1.22%     93.50% # Number of insts issued each cycle (Count)
system.cpu0.numIssuedDist::4                  2400278      1.61%     95.12% # Number of insts issued each cycle (Count)
system.cpu0.numIssuedDist::5                  2102925      1.41%     96.53% # Number of insts issued each cycle (Count)
system.cpu0.numIssuedDist::6                  2059931      1.38%     97.91% # Number of insts issued each cycle (Count)
system.cpu0.numIssuedDist::7                  1357257      0.91%     98.83% # Number of insts issued each cycle (Count)
system.cpu0.numIssuedDist::8                  1744688      1.17%    100.00% # Number of insts issued each cycle (Count)
system.cpu0.numIssuedDist::overflows                0      0.00%    100.00% # Number of insts issued each cycle (Count)
system.cpu0.numIssuedDist::min_value                0                       # Number of insts issued each cycle (Count)
system.cpu0.numIssuedDist::max_value                8                       # Number of insts issued each cycle (Count)
system.cpu0.numIssuedDist::total            148732312                       # Number of insts issued each cycle (Count)
system.cpu0.statFuBusy::No_OpClass                  0      0.00%      0.00% # attempts to use FU when none available (Count)
system.cpu0.statFuBusy::IntAlu                  41947      1.00%      1.00% # attempts to use FU when none available (Count)
system.cpu0.statFuBusy::IntMult                     0      0.00%      1.00% # attempts to use FU when none available (Count)
system.cpu0.statFuBusy::IntDiv                      0      0.00%      1.00% # attempts to use FU when none available (Count)
system.cpu0.statFuBusy::FloatAdd                    0      0.00%      1.00% # attempts to use FU when none available (Count)
system.cpu0.statFuBusy::FloatCmp                    0      0.00%      1.00% # attempts to use FU when none available (Count)
system.cpu0.statFuBusy::FloatCvt                    0      0.00%      1.00% # attempts to use FU when none available (Count)
system.cpu0.statFuBusy::FloatMult                   0      0.00%      1.00% # attempts to use FU when none available (Count)
system.cpu0.statFuBusy::FloatMultAcc                0      0.00%      1.00% # attempts to use FU when none available (Count)
system.cpu0.statFuBusy::FloatDiv                    0      0.00%      1.00% # attempts to use FU when none available (Count)
system.cpu0.statFuBusy::FloatMisc                   0      0.00%      1.00% # attempts to use FU when none available (Count)
system.cpu0.statFuBusy::FloatSqrt                   0      0.00%      1.00% # attempts to use FU when none available (Count)
system.cpu0.statFuBusy::SimdAdd                     3      0.00%      1.00% # attempts to use FU when none available (Count)
system.cpu0.statFuBusy::SimdAddAcc                  0      0.00%      1.00% # attempts to use FU when none available (Count)
system.cpu0.statFuBusy::SimdAlu                   110      0.00%      1.00% # attempts to use FU when none available (Count)
system.cpu0.statFuBusy::SimdCmp                     0      0.00%      1.00% # attempts to use FU when none available (Count)
system.cpu0.statFuBusy::SimdCvt                    86      0.00%      1.01% # attempts to use FU when none available (Count)
system.cpu0.statFuBusy::SimdMisc                   50      0.00%      1.01% # attempts to use FU when none available (Count)
system.cpu0.statFuBusy::SimdMult                    0      0.00%      1.01% # attempts to use FU when none available (Count)
system.cpu0.statFuBusy::SimdMultAcc                 0      0.00%      1.01% # attempts to use FU when none available (Count)
system.cpu0.statFuBusy::SimdShift                  10      0.00%      1.01% # attempts to use FU when none available (Count)
system.cpu0.statFuBusy::SimdShiftAcc                0      0.00%      1.01% # attempts to use FU when none available (Count)
system.cpu0.statFuBusy::SimdDiv                     0      0.00%      1.01% # attempts to use FU when none available (Count)
system.cpu0.statFuBusy::SimdSqrt                    0      0.00%      1.01% # attempts to use FU when none available (Count)
system.cpu0.statFuBusy::SimdFloatAdd           640124     15.29%     16.30% # attempts to use FU when none available (Count)
system.cpu0.statFuBusy::SimdFloatAlu                0      0.00%     16.30% # attempts to use FU when none available (Count)
system.cpu0.statFuBusy::SimdFloatCmp                0      0.00%     16.30% # attempts to use FU when none available (Count)
system.cpu0.statFuBusy::SimdFloatCvt                0      0.00%     16.30% # attempts to use FU when none available (Count)
system.cpu0.statFuBusy::SimdFloatDiv                0      0.00%     16.30% # attempts to use FU when none available (Count)
system.cpu0.statFuBusy::SimdFloatMisc               0      0.00%     16.30% # attempts to use FU when none available (Count)
system.cpu0.statFuBusy::SimdFloatMult               0      0.00%     16.30% # attempts to use FU when none available (Count)
system.cpu0.statFuBusy::SimdFloatMultAcc            0      0.00%     16.30% # attempts to use FU when none available (Count)
system.cpu0.statFuBusy::SimdFloatSqrt               0      0.00%     16.30% # attempts to use FU when none available (Count)
system.cpu0.statFuBusy::SimdReduceAdd               0      0.00%     16.30% # attempts to use FU when none available (Count)
system.cpu0.statFuBusy::SimdReduceAlu               0      0.00%     16.30% # attempts to use FU when none available (Count)
system.cpu0.statFuBusy::SimdReduceCmp               0      0.00%     16.30% # attempts to use FU when none available (Count)
system.cpu0.statFuBusy::SimdFloatReduceAdd            0      0.00%     16.30% # attempts to use FU when none available (Count)
system.cpu0.statFuBusy::SimdFloatReduceCmp            0      0.00%     16.30% # attempts to use FU when none available (Count)
system.cpu0.statFuBusy::SimdAes                     0      0.00%     16.30% # attempts to use FU when none available (Count)
system.cpu0.statFuBusy::SimdAesMix                  0      0.00%     16.30% # attempts to use FU when none available (Count)
system.cpu0.statFuBusy::SimdSha1Hash                0      0.00%     16.30% # attempts to use FU when none available (Count)
system.cpu0.statFuBusy::SimdSha1Hash2               0      0.00%     16.30% # attempts to use FU when none available (Count)
system.cpu0.statFuBusy::SimdSha256Hash              0      0.00%     16.30% # attempts to use FU when none available (Count)
system.cpu0.statFuBusy::SimdSha256Hash2             0      0.00%     16.30% # attempts to use FU when none available (Count)
system.cpu0.statFuBusy::SimdShaSigma2               0      0.00%     16.30% # attempts to use FU when none available (Count)
system.cpu0.statFuBusy::SimdShaSigma3               0      0.00%     16.30% # attempts to use FU when none available (Count)
system.cpu0.statFuBusy::SimdPredAlu                 0      0.00%     16.30% # attempts to use FU when none available (Count)
system.cpu0.statFuBusy::MemRead                376668      9.00%     25.30% # attempts to use FU when none available (Count)
system.cpu0.statFuBusy::MemWrite               876016     20.93%     46.23% # attempts to use FU when none available (Count)
system.cpu0.statFuBusy::FloatMemRead          1937882     46.30%     92.53% # attempts to use FU when none available (Count)
system.cpu0.statFuBusy::FloatMemWrite          312745      7.47%    100.00% # attempts to use FU when none available (Count)
system.cpu0.statFuBusy::IprAccess                   0      0.00%    100.00% # attempts to use FU when none available (Count)
system.cpu0.statFuBusy::InstPrefetch                0      0.00%    100.00% # attempts to use FU when none available (Count)
system.cpu0.statIssuedInstType_0::No_OpClass      2765645      3.59%      3.59% # Number of instructions issued per FU type, per thread (Count)
system.cpu0.statIssuedInstType_0::IntAlu     32827177     42.64%     46.23% # Number of instructions issued per FU type, per thread (Count)
system.cpu0.statIssuedInstType_0::IntMult          325      0.00%     46.23% # Number of instructions issued per FU type, per thread (Count)
system.cpu0.statIssuedInstType_0::IntDiv         3064      0.00%     46.23% # Number of instructions issued per FU type, per thread (Count)
system.cpu0.statIssuedInstType_0::FloatAdd      3630874      4.72%     50.95% # Number of instructions issued per FU type, per thread (Count)
system.cpu0.statIssuedInstType_0::FloatCmp            0      0.00%     50.95% # Number of instructions issued per FU type, per thread (Count)
system.cpu0.statIssuedInstType_0::FloatCvt          548      0.00%     50.95% # Number of instructions issued per FU type, per thread (Count)
system.cpu0.statIssuedInstType_0::FloatMult            0      0.00%     50.95% # Number of instructions issued per FU type, per thread (Count)
system.cpu0.statIssuedInstType_0::FloatMultAcc            0      0.00%     50.95% # Number of instructions issued per FU type, per thread (Count)
system.cpu0.statIssuedInstType_0::FloatDiv            0      0.00%     50.95% # Number of instructions issued per FU type, per thread (Count)
system.cpu0.statIssuedInstType_0::FloatMisc            0      0.00%     50.95% # Number of instructions issued per FU type, per thread (Count)
system.cpu0.statIssuedInstType_0::FloatSqrt            0      0.00%     50.95% # Number of instructions issued per FU type, per thread (Count)
system.cpu0.statIssuedInstType_0::SimdAdd         2683      0.00%     50.95% # Number of instructions issued per FU type, per thread (Count)
system.cpu0.statIssuedInstType_0::SimdAddAcc            0      0.00%     50.95% # Number of instructions issued per FU type, per thread (Count)
system.cpu0.statIssuedInstType_0::SimdAlu        32879      0.04%     50.99% # Number of instructions issued per FU type, per thread (Count)
system.cpu0.statIssuedInstType_0::SimdCmp           68      0.00%     50.99% # Number of instructions issued per FU type, per thread (Count)
system.cpu0.statIssuedInstType_0::SimdCvt         6170      0.01%     51.00% # Number of instructions issued per FU type, per thread (Count)
system.cpu0.statIssuedInstType_0::SimdMisc         4134      0.01%     51.01% # Number of instructions issued per FU type, per thread (Count)
system.cpu0.statIssuedInstType_0::SimdMult            0      0.00%     51.01% # Number of instructions issued per FU type, per thread (Count)
system.cpu0.statIssuedInstType_0::SimdMultAcc            0      0.00%     51.01% # Number of instructions issued per FU type, per thread (Count)
system.cpu0.statIssuedInstType_0::SimdShift         1522      0.00%     51.01% # Number of instructions issued per FU type, per thread (Count)
system.cpu0.statIssuedInstType_0::SimdShiftAcc            0      0.00%     51.01% # Number of instructions issued per FU type, per thread (Count)
system.cpu0.statIssuedInstType_0::SimdDiv            0      0.00%     51.01% # Number of instructions issued per FU type, per thread (Count)
system.cpu0.statIssuedInstType_0::SimdSqrt            0      0.00%     51.01% # Number of instructions issued per FU type, per thread (Count)
system.cpu0.statIssuedInstType_0::SimdFloatAdd      7134242      9.27%     60.28% # Number of instructions issued per FU type, per thread (Count)
system.cpu0.statIssuedInstType_0::SimdFloatAlu            0      0.00%     60.28% # Number of instructions issued per FU type, per thread (Count)
system.cpu0.statIssuedInstType_0::SimdFloatCmp           25      0.00%     60.28% # Number of instructions issued per FU type, per thread (Count)
system.cpu0.statIssuedInstType_0::SimdFloatCvt      3018112      3.92%     64.20% # Number of instructions issued per FU type, per thread (Count)
system.cpu0.statIssuedInstType_0::SimdFloatDiv           16      0.00%     64.20% # Number of instructions issued per FU type, per thread (Count)
system.cpu0.statIssuedInstType_0::SimdFloatMisc            0      0.00%     64.20% # Number of instructions issued per FU type, per thread (Count)
system.cpu0.statIssuedInstType_0::SimdFloatMult      1006636      1.31%     65.50% # Number of instructions issued per FU type, per thread (Count)
system.cpu0.statIssuedInstType_0::SimdFloatMultAcc            0      0.00%     65.50% # Number of instructions issued per FU type, per thread (Count)
system.cpu0.statIssuedInstType_0::SimdFloatSqrt            0      0.00%     65.50% # Number of instructions issued per FU type, per thread (Count)
system.cpu0.statIssuedInstType_0::SimdReduceAdd            0      0.00%     65.50% # Number of instructions issued per FU type, per thread (Count)
system.cpu0.statIssuedInstType_0::SimdReduceAlu            0      0.00%     65.50% # Number of instructions issued per FU type, per thread (Count)
system.cpu0.statIssuedInstType_0::SimdReduceCmp            0      0.00%     65.50% # Number of instructions issued per FU type, per thread (Count)
system.cpu0.statIssuedInstType_0::SimdFloatReduceAdd            0      0.00%     65.50% # Number of instructions issued per FU type, per thread (Count)
system.cpu0.statIssuedInstType_0::SimdFloatReduceCmp            0      0.00%     65.50% # Number of instructions issued per FU type, per thread (Count)
system.cpu0.statIssuedInstType_0::SimdAes            0      0.00%     65.50% # Number of instructions issued per FU type, per thread (Count)
system.cpu0.statIssuedInstType_0::SimdAesMix            0      0.00%     65.50% # Number of instructions issued per FU type, per thread (Count)
system.cpu0.statIssuedInstType_0::SimdSha1Hash            0      0.00%     65.50% # Number of instructions issued per FU type, per thread (Count)
system.cpu0.statIssuedInstType_0::SimdSha1Hash2            0      0.00%     65.50% # Number of instructions issued per FU type, per thread (Count)
system.cpu0.statIssuedInstType_0::SimdSha256Hash            0      0.00%     65.50% # Number of instructions issued per FU type, per thread (Count)
system.cpu0.statIssuedInstType_0::SimdSha256Hash2            0      0.00%     65.50% # Number of instructions issued per FU type, per thread (Count)
system.cpu0.statIssuedInstType_0::SimdShaSigma2            0      0.00%     65.50% # Number of instructions issued per FU type, per thread (Count)
system.cpu0.statIssuedInstType_0::SimdShaSigma3            0      0.00%     65.50% # Number of instructions issued per FU type, per thread (Count)
system.cpu0.statIssuedInstType_0::SimdPredAlu            0      0.00%     65.50% # Number of instructions issued per FU type, per thread (Count)
system.cpu0.statIssuedInstType_0::MemRead      1566777      2.03%     67.54% # Number of instructions issued per FU type, per thread (Count)
system.cpu0.statIssuedInstType_0::MemWrite      3187849      4.14%     71.68% # Number of instructions issued per FU type, per thread (Count)
system.cpu0.statIssuedInstType_0::FloatMemRead     14176315     18.41%     90.09% # Number of instructions issued per FU type, per thread (Count)
system.cpu0.statIssuedInstType_0::FloatMemWrite      7629874      9.91%    100.00% # Number of instructions issued per FU type, per thread (Count)
system.cpu0.statIssuedInstType_0::IprAccess            0      0.00%    100.00% # Number of instructions issued per FU type, per thread (Count)
system.cpu0.statIssuedInstType_0::InstPrefetch            0      0.00%    100.00% # Number of instructions issued per FU type, per thread (Count)
system.cpu0.statIssuedInstType_0::total      76994935                       # Number of instructions issued per FU type, per thread (Count)
system.cpu0.issueRate                        0.516335                       # Inst issue rate ((Count/Cycle))
system.cpu0.fuBusy                            4185641                       # FU busy when requested (Count)
system.cpu0.fuBusyRate                       0.054363                       # FU busy rate (busy events/executed inst) ((Count/Count))
system.cpu0.intInstQueueReads               226679545                       # Number of integer instruction queue reads (Count)
system.cpu0.intInstQueueWrites               52612490                       # Number of integer instruction queue writes (Count)
system.cpu0.intInstQueueWakeupAccesses       35543239                       # Number of integer instruction queue wakeup accesses (Count)
system.cpu0.fpInstQueueReads                 80230347                       # Number of floating instruction queue reads (Count)
system.cpu0.fpInstQueueWrites                48995750                       # Number of floating instruction queue writes (Count)
system.cpu0.fpInstQueueWakeupAccesses        38637895                       # Number of floating instruction queue wakeup accesses (Count)
system.cpu0.vecInstQueueReads                       0                       # Number of vector instruction queue reads (Count)
system.cpu0.vecInstQueueWrites                      0                       # Number of vector instruction queue writes (Count)
system.cpu0.vecInstQueueWakeupAccesses              0                       # Number of vector instruction queue wakeup accesses (Count)
system.cpu0.intAluAccesses                   36841250                       # Number of integer alu accesses (Count)
system.cpu0.fpAluAccesses                    41573681                       # Number of floating point alu accesses (Count)
system.cpu0.vecAluAccesses                          0                       # Number of vector alu accesses (Count)
system.cpu0.numInsts                         76968409                       # Number of executed instructions (Count)
system.cpu0.numLoadInsts                     15736937                       # Number of load instructions executed (Count)
system.cpu0.numSquashedInsts                    26526                       # Number of squashed instructions skipped in execute (Count)
system.cpu0.numSwp                                  0                       # Number of swp insts executed (Count)
system.cpu0.numNop                                  0                       # Number of nop insts executed (Count)
system.cpu0.numRefs                          26553635                       # Number of memory reference insts executed (Count)
system.cpu0.numBranches                       5422083                       # Number of branches executed (Count)
system.cpu0.numStoreInsts                    10816698                       # Number of stores executed (Count)
system.cpu0.numRate                          0.516157                       # Inst execution rate ((Count/Cycle))
system.cpu0.timesIdled                           1968                       # Number of times that the entire CPU went into an idle state and unscheduled itself (Count)
system.cpu0.idleCycles                         385895                       # Total number of cycles that the CPU has spent unscheduled due to idling (Cycle)
system.cpu0.committedInsts                   28750786                       # Number of Instructions Simulated (Count)
system.cpu0.committedOps                     52611698                       # Number of Ops (including micro ops) Simulated (Count)
system.cpu0.cpi                              5.186578                       # CPI: Cycles Per Instruction ((Cycle/Count))
system.cpu0.totalCpi                         5.186578                       # CPI: Total CPI of All Threads ((Cycle/Count))
system.cpu0.ipc                              0.192805                       # IPC: Instructions Per Cycle ((Count/Cycle))
system.cpu0.totalIpc                         0.192805                       # IPC: Total IPC of All Threads ((Count/Cycle))
system.cpu0.intRegfileReads                  58229482                       # Number of integer regfile reads (Count)
system.cpu0.intRegfileWrites                 23170397                       # Number of integer regfile writes (Count)
system.cpu0.fpRegfileReads                   42203694                       # Number of floating regfile reads (Count)
system.cpu0.fpRegfileWrites                  28000350                       # Number of floating regfile writes (Count)
system.cpu0.ccRegfileReads                   33052383                       # number of cc regfile reads (Count)
system.cpu0.ccRegfileWrites                  19822702                       # number of cc regfile writes (Count)
system.cpu0.miscRegfileReads                 37418287                       # number of misc regfile reads (Count)
system.cpu0.miscRegfileWrites                     234                       # number of misc regfile writes (Count)
system.cpu0.MemDepUnit__0.insertedLoads      15740295                       # Number of loads inserted to the mem dependence unit. (Count)
system.cpu0.MemDepUnit__0.insertedStores     10823394                       # Number of stores inserted to the mem dependence unit. (Count)
system.cpu0.MemDepUnit__0.conflictingLoads       129419                       # Number of conflicting loads. (Count)
system.cpu0.MemDepUnit__0.conflictingStores       128639                       # Number of conflicting stores. (Count)
system.cpu0.MemDepUnit__1.insertedLoads             0                       # Number of loads inserted to the mem dependence unit. (Count)
system.cpu0.MemDepUnit__1.insertedStores            0                       # Number of stores inserted to the mem dependence unit. (Count)
system.cpu0.MemDepUnit__1.conflictingLoads            0                       # Number of conflicting loads. (Count)
system.cpu0.MemDepUnit__1.conflictingStores            0                       # Number of conflicting stores. (Count)
system.cpu0.MemDepUnit__2.insertedLoads             0                       # Number of loads inserted to the mem dependence unit. (Count)
system.cpu0.MemDepUnit__2.insertedStores            0                       # Number of stores inserted to the mem dependence unit. (Count)
system.cpu0.MemDepUnit__2.conflictingLoads            0                       # Number of conflicting loads. (Count)
system.cpu0.MemDepUnit__2.conflictingStores            0                       # Number of conflicting stores. (Count)
system.cpu0.MemDepUnit__3.insertedLoads             0                       # Number of loads inserted to the mem dependence unit. (Count)
system.cpu0.MemDepUnit__3.insertedStores            0                       # Number of stores inserted to the mem dependence unit. (Count)
system.cpu0.MemDepUnit__3.conflictingLoads            0                       # Number of conflicting loads. (Count)
system.cpu0.MemDepUnit__3.conflictingStores            0                       # Number of conflicting stores. (Count)
system.cpu0.branchPred.lookups                5849953                       # Number of BP lookups (Count)
system.cpu0.branchPred.condPredicted          5797439                       # Number of conditional branches predicted (Count)
system.cpu0.branchPred.condIncorrect             8989                       # Number of conditional branches incorrect (Count)
system.cpu0.branchPred.BTBLookups             2712849                       # Number of BTB lookups (Count)
system.cpu0.branchPred.BTBHits                2709016                       # Number of BTB hits (Count)
system.cpu0.branchPred.BTBHitRatio           0.998587                       # BTB Hit Ratio (Ratio)
system.cpu0.branchPred.RASUsed                  19767                       # Number of times the RAS was used to get a target. (Count)
system.cpu0.branchPred.RASIncorrect                12                       # Number of incorrect RAS predictions. (Count)
system.cpu0.branchPred.indirectLookups           9682                       # Number of indirect predictor lookups. (Count)
system.cpu0.branchPred.indirectHits              5770                       # Number of indirect target hits. (Count)
system.cpu0.branchPred.indirectMisses            3912                       # Number of indirect misses. (Count)
system.cpu0.branchPred.indirectMispredicted          813                       # Number of mispredicted indirect branches. (Count)
system.cpu0.commit.commitSquashedInsts       21643547                       # The number of squashed insts skipped by commit (Count)
system.cpu0.commit.commitNonSpecStalls            904                       # The number of times commit has been forced to stall to communicate backwards (Count)
system.cpu0.commit.branchMispredicts             9011                       # The number of times a branch was mispredicted (Count)
system.cpu0.commit.numCommittedDist::samples    145844459                       # Number of insts commited each cycle (Count)
system.cpu0.commit.numCommittedDist::mean     0.360738                       # Number of insts commited each cycle (Count)
system.cpu0.commit.numCommittedDist::stdev     1.509371                       # Number of insts commited each cycle (Count)
system.cpu0.commit.numCommittedDist::underflows            0      0.00%      0.00% # Number of insts commited each cycle (Count)
system.cpu0.commit.numCommittedDist::0      134926845     92.51%     92.51% # Number of insts commited each cycle (Count)
system.cpu0.commit.numCommittedDist::1        2479791      1.70%     94.21% # Number of insts commited each cycle (Count)
system.cpu0.commit.numCommittedDist::2        1123505      0.77%     94.98% # Number of insts commited each cycle (Count)
system.cpu0.commit.numCommittedDist::3        1092384      0.75%     95.73% # Number of insts commited each cycle (Count)
system.cpu0.commit.numCommittedDist::4         976054      0.67%     96.40% # Number of insts commited each cycle (Count)
system.cpu0.commit.numCommittedDist::5         318680      0.22%     96.62% # Number of insts commited each cycle (Count)
system.cpu0.commit.numCommittedDist::6          62166      0.04%     96.66% # Number of insts commited each cycle (Count)
system.cpu0.commit.numCommittedDist::7         183139      0.13%     96.79% # Number of insts commited each cycle (Count)
system.cpu0.commit.numCommittedDist::8        4681895      3.21%    100.00% # Number of insts commited each cycle (Count)
system.cpu0.commit.numCommittedDist::overflows            0      0.00%    100.00% # Number of insts commited each cycle (Count)
system.cpu0.commit.numCommittedDist::min_value            0                       # Number of insts commited each cycle (Count)
system.cpu0.commit.numCommittedDist::max_value            8                       # Number of insts commited each cycle (Count)
system.cpu0.commit.numCommittedDist::total    145844459                       # Number of insts commited each cycle (Count)
system.cpu0.commit.instsCommitted            28750786                       # Number of instructions committed (Count)
system.cpu0.commit.opsCommitted              52611698                       # Number of ops (including micro ops) committed (Count)
system.cpu0.commit.memRefs                   12195973                       # Number of memory references committed (Count)
system.cpu0.commit.loads                      9395445                       # Number of loads committed (Count)
system.cpu0.commit.amos                             0                       # Number of atomic instructions committed (Count)
system.cpu0.commit.membars                        444                       # Number of memory barriers committed (Count)
system.cpu0.commit.branches                   4756406                       # Number of branches committed (Count)
system.cpu0.commit.vectorInstructions               0                       # Number of committed Vector instructions. (Count)
system.cpu0.commit.floating                  28320388                       # Number of committed floating point instructions. (Count)
system.cpu0.commit.integer                   35784700                       # Number of committed integer instructions. (Count)
system.cpu0.commit.functionCalls                 8283                       # Number of function calls committed. (Count)
system.cpu0.commit.committedInstType_0::No_OpClass         6821      0.01%      0.01% # Class of committed instruction (Count)
system.cpu0.commit.committedInstType_0::IntAlu     25614763     48.69%     48.70% # Class of committed instruction (Count)
system.cpu0.commit.committedInstType_0::IntMult          293      0.00%     48.70% # Class of committed instruction (Count)
system.cpu0.commit.committedInstType_0::IntDiv         2804      0.01%     48.71% # Class of committed instruction (Count)
system.cpu0.commit.committedInstType_0::FloatAdd      3627965      6.90%     55.60% # Class of committed instruction (Count)
system.cpu0.commit.committedInstType_0::FloatCmp            0      0.00%     55.60% # Class of committed instruction (Count)
system.cpu0.commit.committedInstType_0::FloatCvt          416      0.00%     55.60% # Class of committed instruction (Count)
system.cpu0.commit.committedInstType_0::FloatMult            0      0.00%     55.60% # Class of committed instruction (Count)
system.cpu0.commit.committedInstType_0::FloatMultAcc            0      0.00%     55.60% # Class of committed instruction (Count)
system.cpu0.commit.committedInstType_0::FloatDiv            0      0.00%     55.60% # Class of committed instruction (Count)
system.cpu0.commit.committedInstType_0::FloatMisc            0      0.00%     55.60% # Class of committed instruction (Count)
system.cpu0.commit.committedInstType_0::FloatSqrt            0      0.00%     55.60% # Class of committed instruction (Count)
system.cpu0.commit.committedInstType_0::SimdAdd         2098      0.00%     55.61% # Class of committed instruction (Count)
system.cpu0.commit.committedInstType_0::SimdAddAcc            0      0.00%     55.61% # Class of committed instruction (Count)
system.cpu0.commit.committedInstType_0::SimdAlu        12796      0.02%     55.63% # Class of committed instruction (Count)
system.cpu0.commit.committedInstType_0::SimdCmp           66      0.00%     55.63% # Class of committed instruction (Count)
system.cpu0.commit.committedInstType_0::SimdCvt         4504      0.01%     55.64% # Class of committed instruction (Count)
system.cpu0.commit.committedInstType_0::SimdMisc         3511      0.01%     55.65% # Class of committed instruction (Count)
system.cpu0.commit.committedInstType_0::SimdMult            0      0.00%     55.65% # Class of committed instruction (Count)
system.cpu0.commit.committedInstType_0::SimdMultAcc            0      0.00%     55.65% # Class of committed instruction (Count)
system.cpu0.commit.committedInstType_0::SimdShift          727      0.00%     55.65% # Class of committed instruction (Count)
system.cpu0.commit.committedInstType_0::SimdShiftAcc            0      0.00%     55.65% # Class of committed instruction (Count)
system.cpu0.commit.committedInstType_0::SimdDiv            0      0.00%     55.65% # Class of committed instruction (Count)
system.cpu0.commit.committedInstType_0::SimdSqrt            0      0.00%     55.65% # Class of committed instruction (Count)
system.cpu0.commit.committedInstType_0::SimdFloatAdd      7129626     13.55%     69.20% # Class of committed instruction (Count)
system.cpu0.commit.committedInstType_0::SimdFloatAlu            0      0.00%     69.20% # Class of committed instruction (Count)
system.cpu0.commit.committedInstType_0::SimdFloatCmp           24      0.00%     69.20% # Class of committed instruction (Count)
system.cpu0.commit.committedInstType_0::SimdFloatCvt      3006952      5.72%     74.91% # Class of committed instruction (Count)
system.cpu0.commit.committedInstType_0::SimdFloatDiv           15      0.00%     74.91% # Class of committed instruction (Count)
system.cpu0.commit.committedInstType_0::SimdFloatMisc            0      0.00%     74.91% # Class of committed instruction (Count)
system.cpu0.commit.committedInstType_0::SimdFloatMult      1002344      1.91%     76.82% # Class of committed instruction (Count)
system.cpu0.commit.committedInstType_0::SimdFloatMultAcc            0      0.00%     76.82% # Class of committed instruction (Count)
system.cpu0.commit.committedInstType_0::SimdFloatSqrt            0      0.00%     76.82% # Class of committed instruction (Count)
system.cpu0.commit.committedInstType_0::SimdReduceAdd            0      0.00%     76.82% # Class of committed instruction (Count)
system.cpu0.commit.committedInstType_0::SimdReduceAlu            0      0.00%     76.82% # Class of committed instruction (Count)
system.cpu0.commit.committedInstType_0::SimdReduceCmp            0      0.00%     76.82% # Class of committed instruction (Count)
system.cpu0.commit.committedInstType_0::SimdFloatReduceAdd            0      0.00%     76.82% # Class of committed instruction (Count)
system.cpu0.commit.committedInstType_0::SimdFloatReduceCmp            0      0.00%     76.82% # Class of committed instruction (Count)
system.cpu0.commit.committedInstType_0::SimdAes            0      0.00%     76.82% # Class of committed instruction (Count)
system.cpu0.commit.committedInstType_0::SimdAesMix            0      0.00%     76.82% # Class of committed instruction (Count)
system.cpu0.commit.committedInstType_0::SimdSha1Hash            0      0.00%     76.82% # Class of committed instruction (Count)
system.cpu0.commit.committedInstType_0::SimdSha1Hash2            0      0.00%     76.82% # Class of committed instruction (Count)
system.cpu0.commit.committedInstType_0::SimdSha256Hash            0      0.00%     76.82% # Class of committed instruction (Count)
system.cpu0.commit.committedInstType_0::SimdSha256Hash2            0      0.00%     76.82% # Class of committed instruction (Count)
system.cpu0.commit.committedInstType_0::SimdShaSigma2            0      0.00%     76.82% # Class of committed instruction (Count)
system.cpu0.commit.committedInstType_0::SimdShaSigma3            0      0.00%     76.82% # Class of committed instruction (Count)
system.cpu0.commit.committedInstType_0::SimdPredAlu            0      0.00%     76.82% # Class of committed instruction (Count)
system.cpu0.commit.committedInstType_0::MemRead       251708      0.48%     77.30% # Class of committed instruction (Count)
system.cpu0.commit.committedInstType_0::MemWrite       420488      0.80%     78.10% # Class of committed instruction (Count)
system.cpu0.commit.committedInstType_0::FloatMemRead      9143737     17.38%     95.48% # Class of committed instruction (Count)
system.cpu0.commit.committedInstType_0::FloatMemWrite      2380040      4.52%    100.00% # Class of committed instruction (Count)
system.cpu0.commit.committedInstType_0::IprAccess            0      0.00%    100.00% # Class of committed instruction (Count)
system.cpu0.commit.committedInstType_0::InstPrefetch            0      0.00%    100.00% # Class of committed instruction (Count)
system.cpu0.commit.committedInstType_0::total     52611698                       # Class of committed instruction (Count)
system.cpu0.commit.commitEligibleSamples      4681895                       # number cycles where commit BW limit reached (Cycle)
system.cpu0.dcache.demandHits::cpu0.data     12349149                       # number of demand (read+write) hits (Count)
system.cpu0.dcache.demandHits::total         12349149                       # number of demand (read+write) hits (Count)
system.cpu0.dcache.overallHits::cpu0.data     13657034                       # number of overall hits (Count)
system.cpu0.dcache.overallHits::total        13657034                       # number of overall hits (Count)
system.cpu0.dcache.demandMisses::cpu0.data      4529676                       # number of demand (read+write) misses (Count)
system.cpu0.dcache.demandMisses::total        4529676                       # number of demand (read+write) misses (Count)
system.cpu0.dcache.overallMisses::cpu0.data      4596613                       # number of overall misses (Count)
system.cpu0.dcache.overallMisses::total       4596613                       # number of overall misses (Count)
system.cpu0.dcache.demandMissLatency::cpu0.data 193674040242                       # number of demand (read+write) miss ticks (Tick)
system.cpu0.dcache.demandMissLatency::total 193674040242                       # number of demand (read+write) miss ticks (Tick)
system.cpu0.dcache.overallMissLatency::cpu0.data 193674040242                       # number of overall miss ticks (Tick)
system.cpu0.dcache.overallMissLatency::total 193674040242                       # number of overall miss ticks (Tick)
system.cpu0.dcache.demandAccesses::cpu0.data     16878825                       # number of demand (read+write) accesses (Count)
system.cpu0.dcache.demandAccesses::total     16878825                       # number of demand (read+write) accesses (Count)
system.cpu0.dcache.overallAccesses::cpu0.data     18253647                       # number of overall (read+write) accesses (Count)
system.cpu0.dcache.overallAccesses::total     18253647                       # number of overall (read+write) accesses (Count)
system.cpu0.dcache.demandMissRate::cpu0.data     0.268364                       # miss rate for demand accesses (Ratio)
system.cpu0.dcache.demandMissRate::total     0.268364                       # miss rate for demand accesses (Ratio)
system.cpu0.dcache.overallMissRate::cpu0.data     0.251819                       # miss rate for overall accesses (Ratio)
system.cpu0.dcache.overallMissRate::total     0.251819                       # miss rate for overall accesses (Ratio)
system.cpu0.dcache.demandAvgMissLatency::cpu0.data 42756.709363                       # average overall miss latency in ticks ((Tick/Count))
system.cpu0.dcache.demandAvgMissLatency::total 42756.709363                       # average overall miss latency in ticks ((Tick/Count))
system.cpu0.dcache.overallAvgMissLatency::cpu0.data 42134.075730                       # average overall miss latency ((Tick/Count))
system.cpu0.dcache.overallAvgMissLatency::total 42134.075730                       # average overall miss latency ((Tick/Count))
system.cpu0.dcache.blockedCycles::no_mshrs      3803598                       # number of cycles access was blocked (Cycle)
system.cpu0.dcache.blockedCycles::no_targets         2996                       # number of cycles access was blocked (Cycle)
system.cpu0.dcache.blockedCauses::no_mshrs       129008                       # number of times access was blocked (Count)
system.cpu0.dcache.blockedCauses::no_targets           19                       # number of times access was blocked (Count)
system.cpu0.dcache.avgBlocked::no_mshrs     29.483427                       # average number of cycles each access was blocked ((Cycle/Count))
system.cpu0.dcache.avgBlocked::no_targets   157.684211                       # average number of cycles each access was blocked ((Cycle/Count))
system.cpu0.dcache.writebacks::writebacks       314753                       # number of writebacks (Count)
system.cpu0.dcache.writebacks::total           314753                       # number of writebacks (Count)
system.cpu0.dcache.demandMshrHits::cpu0.data      3523224                       # number of demand (read+write) MSHR hits (Count)
system.cpu0.dcache.demandMshrHits::total      3523224                       # number of demand (read+write) MSHR hits (Count)
system.cpu0.dcache.overallMshrHits::cpu0.data      3523224                       # number of overall MSHR hits (Count)
system.cpu0.dcache.overallMshrHits::total      3523224                       # number of overall MSHR hits (Count)
system.cpu0.dcache.demandMshrMisses::cpu0.data      1006452                       # number of demand (read+write) MSHR misses (Count)
system.cpu0.dcache.demandMshrMisses::total      1006452                       # number of demand (read+write) MSHR misses (Count)
system.cpu0.dcache.overallMshrMisses::cpu0.data      1068947                       # number of overall MSHR misses (Count)
system.cpu0.dcache.overallMshrMisses::total      1068947                       # number of overall MSHR misses (Count)
system.cpu0.dcache.demandMshrMissLatency::cpu0.data  74301213242                       # number of demand (read+write) MSHR miss ticks (Tick)
system.cpu0.dcache.demandMshrMissLatency::total  74301213242                       # number of demand (read+write) MSHR miss ticks (Tick)
system.cpu0.dcache.overallMshrMissLatency::cpu0.data  78941188992                       # number of overall MSHR miss ticks (Tick)
system.cpu0.dcache.overallMshrMissLatency::total  78941188992                       # number of overall MSHR miss ticks (Tick)
system.cpu0.dcache.demandMshrMissRate::cpu0.data     0.059628                       # mshr miss ratio for demand accesses (Ratio)
system.cpu0.dcache.demandMshrMissRate::total     0.059628                       # mshr miss ratio for demand accesses (Ratio)
system.cpu0.dcache.overallMshrMissRate::cpu0.data     0.058561                       # mshr miss ratio for overall accesses (Ratio)
system.cpu0.dcache.overallMshrMissRate::total     0.058561                       # mshr miss ratio for overall accesses (Ratio)
system.cpu0.dcache.demandAvgMshrMissLatency::cpu0.data 73824.895019                       # average overall mshr miss latency ((Tick/Count))
system.cpu0.dcache.demandAvgMshrMissLatency::total 73824.895019                       # average overall mshr miss latency ((Tick/Count))
system.cpu0.dcache.overallAvgMshrMissLatency::cpu0.data 73849.488321                       # average overall mshr miss latency ((Tick/Count))
system.cpu0.dcache.overallAvgMshrMissLatency::total 73849.488321                       # average overall mshr miss latency ((Tick/Count))
system.cpu0.dcache.replacements               1067620                       # number of replacements (Count)
system.cpu0.dcache.LockedRMWReadReq.hits::cpu0.data          181                       # number of LockedRMWReadReq hits (Count)
system.cpu0.dcache.LockedRMWReadReq.hits::total          181                       # number of LockedRMWReadReq hits (Count)
system.cpu0.dcache.LockedRMWReadReq.misses::cpu0.data           41                       # number of LockedRMWReadReq misses (Count)
system.cpu0.dcache.LockedRMWReadReq.misses::total           41                       # number of LockedRMWReadReq misses (Count)
system.cpu0.dcache.LockedRMWReadReq.missLatency::cpu0.data      1281250                       # number of LockedRMWReadReq miss ticks (Tick)
system.cpu0.dcache.LockedRMWReadReq.missLatency::total      1281250                       # number of LockedRMWReadReq miss ticks (Tick)
system.cpu0.dcache.LockedRMWReadReq.accesses::cpu0.data          222                       # number of LockedRMWReadReq accesses(hits+misses) (Count)
system.cpu0.dcache.LockedRMWReadReq.accesses::total          222                       # number of LockedRMWReadReq accesses(hits+misses) (Count)
system.cpu0.dcache.LockedRMWReadReq.missRate::cpu0.data     0.184685                       # miss rate for LockedRMWReadReq accesses (Ratio)
system.cpu0.dcache.LockedRMWReadReq.missRate::total     0.184685                       # miss rate for LockedRMWReadReq accesses (Ratio)
system.cpu0.dcache.LockedRMWReadReq.avgMissLatency::cpu0.data        31250                       # average LockedRMWReadReq miss latency ((Tick/Count))
system.cpu0.dcache.LockedRMWReadReq.avgMissLatency::total        31250                       # average LockedRMWReadReq miss latency ((Tick/Count))
system.cpu0.dcache.LockedRMWReadReq.mshrMisses::cpu0.data           41                       # number of LockedRMWReadReq MSHR misses (Count)
system.cpu0.dcache.LockedRMWReadReq.mshrMisses::total           41                       # number of LockedRMWReadReq MSHR misses (Count)
system.cpu0.dcache.LockedRMWReadReq.mshrMissLatency::cpu0.data      3009250                       # number of LockedRMWReadReq MSHR miss ticks (Tick)
system.cpu0.dcache.LockedRMWReadReq.mshrMissLatency::total      3009250                       # number of LockedRMWReadReq MSHR miss ticks (Tick)
system.cpu0.dcache.LockedRMWReadReq.mshrMissRate::cpu0.data     0.184685                       # mshr miss rate for LockedRMWReadReq accesses (Ratio)
system.cpu0.dcache.LockedRMWReadReq.mshrMissRate::total     0.184685                       # mshr miss rate for LockedRMWReadReq accesses (Ratio)
system.cpu0.dcache.LockedRMWReadReq.avgMshrMissLatency::cpu0.data 73396.341463                       # average LockedRMWReadReq mshr miss latency ((Tick/Count))
system.cpu0.dcache.LockedRMWReadReq.avgMshrMissLatency::total 73396.341463                       # average LockedRMWReadReq mshr miss latency ((Tick/Count))
system.cpu0.dcache.LockedRMWWriteReq.hits::cpu0.data          222                       # number of LockedRMWWriteReq hits (Count)
system.cpu0.dcache.LockedRMWWriteReq.hits::total          222                       # number of LockedRMWWriteReq hits (Count)
system.cpu0.dcache.LockedRMWWriteReq.accesses::cpu0.data          222                       # number of LockedRMWWriteReq accesses(hits+misses) (Count)
system.cpu0.dcache.LockedRMWWriteReq.accesses::total          222                       # number of LockedRMWWriteReq accesses(hits+misses) (Count)
system.cpu0.dcache.ReadReq.hits::cpu0.data     10097770                       # number of ReadReq hits (Count)
system.cpu0.dcache.ReadReq.hits::total       10097770                       # number of ReadReq hits (Count)
system.cpu0.dcache.ReadReq.misses::cpu0.data      4230714                       # number of ReadReq misses (Count)
system.cpu0.dcache.ReadReq.misses::total      4230714                       # number of ReadReq misses (Count)
system.cpu0.dcache.ReadReq.missLatency::cpu0.data 172450717250                       # number of ReadReq miss ticks (Tick)
system.cpu0.dcache.ReadReq.missLatency::total 172450717250                       # number of ReadReq miss ticks (Tick)
system.cpu0.dcache.ReadReq.accesses::cpu0.data     14328484                       # number of ReadReq accesses(hits+misses) (Count)
system.cpu0.dcache.ReadReq.accesses::total     14328484                       # number of ReadReq accesses(hits+misses) (Count)
system.cpu0.dcache.ReadReq.missRate::cpu0.data     0.295266                       # miss rate for ReadReq accesses (Ratio)
system.cpu0.dcache.ReadReq.missRate::total     0.295266                       # miss rate for ReadReq accesses (Ratio)
system.cpu0.dcache.ReadReq.avgMissLatency::cpu0.data 40761.610747                       # average ReadReq miss latency ((Tick/Count))
system.cpu0.dcache.ReadReq.avgMissLatency::total 40761.610747                       # average ReadReq miss latency ((Tick/Count))
system.cpu0.dcache.ReadReq.mshrHits::cpu0.data      3523214                       # number of ReadReq MSHR hits (Count)
system.cpu0.dcache.ReadReq.mshrHits::total      3523214                       # number of ReadReq MSHR hits (Count)
system.cpu0.dcache.ReadReq.mshrMisses::cpu0.data       707500                       # number of ReadReq MSHR misses (Count)
system.cpu0.dcache.ReadReq.mshrMisses::total       707500                       # number of ReadReq MSHR misses (Count)
system.cpu0.dcache.ReadReq.mshrMissLatency::cpu0.data  53227883750                       # number of ReadReq MSHR miss ticks (Tick)
system.cpu0.dcache.ReadReq.mshrMissLatency::total  53227883750                       # number of ReadReq MSHR miss ticks (Tick)
system.cpu0.dcache.ReadReq.mshrMissRate::cpu0.data     0.049377                       # mshr miss rate for ReadReq accesses (Ratio)
system.cpu0.dcache.ReadReq.mshrMissRate::total     0.049377                       # mshr miss rate for ReadReq accesses (Ratio)
system.cpu0.dcache.ReadReq.avgMshrMissLatency::cpu0.data 75233.757951                       # average ReadReq mshr miss latency ((Tick/Count))
system.cpu0.dcache.ReadReq.avgMshrMissLatency::total 75233.757951                       # average ReadReq mshr miss latency ((Tick/Count))
system.cpu0.dcache.SoftPFReq.hits::cpu0.data      1307885                       # number of SoftPFReq hits (Count)
system.cpu0.dcache.SoftPFReq.hits::total      1307885                       # number of SoftPFReq hits (Count)
system.cpu0.dcache.SoftPFReq.misses::cpu0.data        66937                       # number of SoftPFReq misses (Count)
system.cpu0.dcache.SoftPFReq.misses::total        66937                       # number of SoftPFReq misses (Count)
system.cpu0.dcache.SoftPFReq.accesses::cpu0.data      1374822                       # number of SoftPFReq accesses(hits+misses) (Count)
system.cpu0.dcache.SoftPFReq.accesses::total      1374822                       # number of SoftPFReq accesses(hits+misses) (Count)
system.cpu0.dcache.SoftPFReq.missRate::cpu0.data     0.048688                       # miss rate for SoftPFReq accesses (Ratio)
system.cpu0.dcache.SoftPFReq.missRate::total     0.048688                       # miss rate for SoftPFReq accesses (Ratio)
system.cpu0.dcache.SoftPFReq.mshrMisses::cpu0.data        62495                       # number of SoftPFReq MSHR misses (Count)
system.cpu0.dcache.SoftPFReq.mshrMisses::total        62495                       # number of SoftPFReq MSHR misses (Count)
system.cpu0.dcache.SoftPFReq.mshrMissLatency::cpu0.data   4639975750                       # number of SoftPFReq MSHR miss ticks (Tick)
system.cpu0.dcache.SoftPFReq.mshrMissLatency::total   4639975750                       # number of SoftPFReq MSHR miss ticks (Tick)
system.cpu0.dcache.SoftPFReq.mshrMissRate::cpu0.data     0.045457                       # mshr miss rate for SoftPFReq accesses (Ratio)
system.cpu0.dcache.SoftPFReq.mshrMissRate::total     0.045457                       # mshr miss rate for SoftPFReq accesses (Ratio)
system.cpu0.dcache.SoftPFReq.avgMshrMissLatency::cpu0.data 74245.551644                       # average SoftPFReq mshr miss latency ((Tick/Count))
system.cpu0.dcache.SoftPFReq.avgMshrMissLatency::total 74245.551644                       # average SoftPFReq mshr miss latency ((Tick/Count))
system.cpu0.dcache.WriteReq.hits::cpu0.data      2251379                       # number of WriteReq hits (Count)
system.cpu0.dcache.WriteReq.hits::total       2251379                       # number of WriteReq hits (Count)
system.cpu0.dcache.WriteReq.misses::cpu0.data       298962                       # number of WriteReq misses (Count)
system.cpu0.dcache.WriteReq.misses::total       298962                       # number of WriteReq misses (Count)
system.cpu0.dcache.WriteReq.missLatency::cpu0.data  21223322992                       # number of WriteReq miss ticks (Tick)
system.cpu0.dcache.WriteReq.missLatency::total  21223322992                       # number of WriteReq miss ticks (Tick)
system.cpu0.dcache.WriteReq.accesses::cpu0.data      2550341                       # number of WriteReq accesses(hits+misses) (Count)
system.cpu0.dcache.WriteReq.accesses::total      2550341                       # number of WriteReq accesses(hits+misses) (Count)
system.cpu0.dcache.WriteReq.missRate::cpu0.data     0.117224                       # miss rate for WriteReq accesses (Ratio)
system.cpu0.dcache.WriteReq.missRate::total     0.117224                       # miss rate for WriteReq accesses (Ratio)
system.cpu0.dcache.WriteReq.avgMissLatency::cpu0.data 70990.035496                       # average WriteReq miss latency ((Tick/Count))
system.cpu0.dcache.WriteReq.avgMissLatency::total 70990.035496                       # average WriteReq miss latency ((Tick/Count))
system.cpu0.dcache.WriteReq.mshrHits::cpu0.data           10                       # number of WriteReq MSHR hits (Count)
system.cpu0.dcache.WriteReq.mshrHits::total           10                       # number of WriteReq MSHR hits (Count)
system.cpu0.dcache.WriteReq.mshrMisses::cpu0.data       298952                       # number of WriteReq MSHR misses (Count)
system.cpu0.dcache.WriteReq.mshrMisses::total       298952                       # number of WriteReq MSHR misses (Count)
system.cpu0.dcache.WriteReq.mshrMissLatency::cpu0.data  21073329492                       # number of WriteReq MSHR miss ticks (Tick)
system.cpu0.dcache.WriteReq.mshrMissLatency::total  21073329492                       # number of WriteReq MSHR miss ticks (Tick)
system.cpu0.dcache.WriteReq.mshrMissRate::cpu0.data     0.117220                       # mshr miss rate for WriteReq accesses (Ratio)
system.cpu0.dcache.WriteReq.mshrMissRate::total     0.117220                       # mshr miss rate for WriteReq accesses (Ratio)
system.cpu0.dcache.WriteReq.avgMshrMissLatency::cpu0.data 70490.679079                       # average WriteReq mshr miss latency ((Tick/Count))
system.cpu0.dcache.WriteReq.avgMshrMissLatency::total 70490.679079                       # average WriteReq mshr miss latency ((Tick/Count))
system.cpu0.dcache.power_state.pwrStateResidencyTicks::UNDEFINED  37279551500                       # Cumulative time (in ticks) in various power states (Tick)
system.cpu0.dcache.tags.tagsInUse         1022.458468                       # Average ticks per tags in use ((Tick/Count))
system.cpu0.dcache.tags.totalRefs            14726428                       # Total number of references to valid blocks. (Count)
system.cpu0.dcache.tags.sampledRefs           1068892                       # Sample count of references to valid blocks. (Count)
system.cpu0.dcache.tags.avgRefs             13.777283                       # Average number of references to valid blocks. ((Count/Count))
system.cpu0.dcache.tags.warmupTick             149000                       # The tick when the warmup percentage was hit. (Tick)
system.cpu0.dcache.tags.occupancies::cpu0.data  1022.458468                       # Average occupied blocks per tick, per requestor ((Count/Tick))
system.cpu0.dcache.tags.avgOccs::cpu0.data     0.998495                       # Average percentage of cache occupancy ((Ratio/Tick))
system.cpu0.dcache.tags.avgOccs::total       0.998495                       # Average percentage of cache occupancy ((Ratio/Tick))
system.cpu0.dcache.tags.occupanciesTaskId::1024         1024                       # Occupied blocks per task id (Count)
system.cpu0.dcache.tags.ageTaskId_1024::0          145                       # Occupied blocks per task id, per block age (Count)
system.cpu0.dcache.tags.ageTaskId_1024::1          878                       # Occupied blocks per task id, per block age (Count)
system.cpu0.dcache.tags.ageTaskId_1024::4            1                       # Occupied blocks per task id, per block age (Count)
system.cpu0.dcache.tags.ratioOccsTaskId::1024            1                       # Ratio of occupied blocks and all blocks, per task id (Ratio)
system.cpu0.dcache.tags.tagAccesses          37577074                       # Number of tag accesses (Count)
system.cpu0.dcache.tags.dataAccesses         37577074                       # Number of data accesses (Count)
system.cpu0.dcache.tags.power_state.pwrStateResidencyTicks::UNDEFINED  37279551500                       # Cumulative time (in ticks) in various power states (Tick)
system.cpu0.decode.idleCycles                 2452924                       # Number of cycles decode is idle (Cycle)
system.cpu0.decode.blockedCycles            135464841                       # Number of cycles decode is blocked (Cycle)
system.cpu0.decode.runCycles                  7812708                       # Number of cycles decode is running (Cycle)
system.cpu0.decode.unblockCycles              2739916                       # Number of cycles decode is unblocking (Cycle)
system.cpu0.decode.squashCycles                261923                       # Number of cycles decode is squashing (Cycle)
system.cpu0.decode.branchResolved             2455553                       # Number of times decode resolved a branch (Count)
system.cpu0.decode.branchMispred                 1355                       # Number of times decode detected a branch misprediction (Count)
system.cpu0.decode.decodedInsts              79842760                       # Number of instructions handled by decode (Count)
system.cpu0.decode.squashedInsts                 6451                       # Number of squashed instructions handled by decode (Count)
system.cpu0.dtb_walker_cache.blockedCycles::no_mshrs            0                       # number of cycles access was blocked (Cycle)
system.cpu0.dtb_walker_cache.blockedCycles::no_targets            0                       # number of cycles access was blocked (Cycle)
system.cpu0.dtb_walker_cache.blockedCauses::no_mshrs            0                       # number of times access was blocked (Count)
system.cpu0.dtb_walker_cache.blockedCauses::no_targets            0                       # number of times access was blocked (Count)
system.cpu0.dtb_walker_cache.avgBlocked::no_mshrs          nan                       # average number of cycles each access was blocked ((Cycle/Count))
system.cpu0.dtb_walker_cache.avgBlocked::no_targets          nan                       # average number of cycles each access was blocked ((Cycle/Count))
system.cpu0.dtb_walker_cache.replacements            0                       # number of replacements (Count)
system.cpu0.dtb_walker_cache.power_state.pwrStateResidencyTicks::UNDEFINED  37279551500                       # Cumulative time (in ticks) in various power states (Tick)
system.cpu0.dtb_walker_cache.tags.tagsInUse            0                       # Average ticks per tags in use ((Tick/Count))
system.cpu0.dtb_walker_cache.tags.totalRefs            0                       # Total number of references to valid blocks. (Count)
system.cpu0.dtb_walker_cache.tags.sampledRefs            0                       # Sample count of references to valid blocks. (Count)
system.cpu0.dtb_walker_cache.tags.avgRefs          nan                       # Average number of references to valid blocks. ((Count/Count))
system.cpu0.dtb_walker_cache.tags.warmupTick            0                       # The tick when the warmup percentage was hit. (Tick)
system.cpu0.dtb_walker_cache.tags.tagAccesses            0                       # Number of tag accesses (Count)
system.cpu0.dtb_walker_cache.tags.dataAccesses            0                       # Number of data accesses (Count)
system.cpu0.dtb_walker_cache.tags.power_state.pwrStateResidencyTicks::UNDEFINED  37279551500                       # Cumulative time (in ticks) in various power states (Tick)
system.cpu0.fetch.icacheStallCycles           5530269                       # Number of cycles fetch is stalled on an Icache miss (Cycle)
system.cpu0.fetch.insts                      43795567                       # Number of instructions fetch has processed (Count)
system.cpu0.fetch.branches                    5849953                       # Number of branches that fetch encountered (Count)
system.cpu0.fetch.predictedBranches           2734553                       # Number of branches that fetch has predicted taken (Count)
system.cpu0.fetch.cycles                    142927183                       # Number of cycles fetch has run and was not squashing or blocked (Cycle)
system.cpu0.fetch.squashCycles                 526510                       # Number of cycles fetch has spent squashing (Cycle)
system.cpu0.fetch.miscStallCycles                1417                       # Number of cycles fetch has spent waiting on interrupts, or bad addresses, or out of MSHRs (Cycle)
system.cpu0.fetch.pendingTrapStallCycles         9968                       # Number of stall cycles due to pending traps (Cycle)
system.cpu0.fetch.icacheWaitRetryStallCycles          220                       # Number of stall cycles due to full MSHR (Cycle)
system.cpu0.fetch.cacheLines                  5351030                       # Number of cache lines fetched (Count)
system.cpu0.fetch.icacheSquashes                 3404                       # Number of outstanding Icache misses that were squashed (Count)
system.cpu0.fetch.nisnDist::samples         148732312                       # Number of instructions fetched each cycle (Total) (Count)
system.cpu0.fetch.nisnDist::mean             0.603875                       # Number of instructions fetched each cycle (Total) (Count)
system.cpu0.fetch.nisnDist::stdev            1.997889                       # Number of instructions fetched each cycle (Total) (Count)
system.cpu0.fetch.nisnDist::underflows              0      0.00%      0.00% # Number of instructions fetched each cycle (Total) (Count)
system.cpu0.fetch.nisnDist::0               134909492     90.71%     90.71% # Number of instructions fetched each cycle (Total) (Count)
system.cpu0.fetch.nisnDist::1                  398658      0.27%     90.97% # Number of instructions fetched each cycle (Total) (Count)
system.cpu0.fetch.nisnDist::2                  757917      0.51%     91.48% # Number of instructions fetched each cycle (Total) (Count)
system.cpu0.fetch.nisnDist::3                 1099465      0.74%     92.22% # Number of instructions fetched each cycle (Total) (Count)
system.cpu0.fetch.nisnDist::4                  661391      0.44%     92.67% # Number of instructions fetched each cycle (Total) (Count)
system.cpu0.fetch.nisnDist::5                  391158      0.26%     92.93% # Number of instructions fetched each cycle (Total) (Count)
system.cpu0.fetch.nisnDist::6                 1500313      1.01%     93.94% # Number of instructions fetched each cycle (Total) (Count)
system.cpu0.fetch.nisnDist::7                 1111805      0.75%     94.69% # Number of instructions fetched each cycle (Total) (Count)
system.cpu0.fetch.nisnDist::8                 7902113      5.31%    100.00% # Number of instructions fetched each cycle (Total) (Count)
system.cpu0.fetch.nisnDist::overflows               0      0.00%    100.00% # Number of instructions fetched each cycle (Total) (Count)
system.cpu0.fetch.nisnDist::min_value               0                       # Number of instructions fetched each cycle (Total) (Count)
system.cpu0.fetch.nisnDist::max_value               8                       # Number of instructions fetched each cycle (Total) (Count)
system.cpu0.fetch.nisnDist::total           148732312                       # Number of instructions fetched each cycle (Total) (Count)
system.cpu0.fetch.branchRate                 0.039230                       # Number of branch fetches per cycle (Ratio)
system.cpu0.fetch.rate                       0.293697                       # Number of inst fetches per cycle ((Count/Cycle))
system.cpu0.icache.demandHits::cpu0.inst      5347523                       # number of demand (read+write) hits (Count)
system.cpu0.icache.demandHits::total          5347523                       # number of demand (read+write) hits (Count)
system.cpu0.icache.overallHits::cpu0.inst      5347523                       # number of overall hits (Count)
system.cpu0.icache.overallHits::total         5347523                       # number of overall hits (Count)
system.cpu0.icache.demandMisses::cpu0.inst         3507                       # number of demand (read+write) misses (Count)
system.cpu0.icache.demandMisses::total           3507                       # number of demand (read+write) misses (Count)
system.cpu0.icache.overallMisses::cpu0.inst         3507                       # number of overall misses (Count)
system.cpu0.icache.overallMisses::total          3507                       # number of overall misses (Count)
system.cpu0.icache.demandMissLatency::cpu0.inst    215188748                       # number of demand (read+write) miss ticks (Tick)
system.cpu0.icache.demandMissLatency::total    215188748                       # number of demand (read+write) miss ticks (Tick)
system.cpu0.icache.overallMissLatency::cpu0.inst    215188748                       # number of overall miss ticks (Tick)
system.cpu0.icache.overallMissLatency::total    215188748                       # number of overall miss ticks (Tick)
system.cpu0.icache.demandAccesses::cpu0.inst      5351030                       # number of demand (read+write) accesses (Count)
system.cpu0.icache.demandAccesses::total      5351030                       # number of demand (read+write) accesses (Count)
system.cpu0.icache.overallAccesses::cpu0.inst      5351030                       # number of overall (read+write) accesses (Count)
system.cpu0.icache.overallAccesses::total      5351030                       # number of overall (read+write) accesses (Count)
system.cpu0.icache.demandMissRate::cpu0.inst     0.000655                       # miss rate for demand accesses (Ratio)
system.cpu0.icache.demandMissRate::total     0.000655                       # miss rate for demand accesses (Ratio)
system.cpu0.icache.overallMissRate::cpu0.inst     0.000655                       # miss rate for overall accesses (Ratio)
system.cpu0.icache.overallMissRate::total     0.000655                       # miss rate for overall accesses (Ratio)
system.cpu0.icache.demandAvgMissLatency::cpu0.inst 61359.779869                       # average overall miss latency in ticks ((Tick/Count))
system.cpu0.icache.demandAvgMissLatency::total 61359.779869                       # average overall miss latency in ticks ((Tick/Count))
system.cpu0.icache.overallAvgMissLatency::cpu0.inst 61359.779869                       # average overall miss latency ((Tick/Count))
system.cpu0.icache.overallAvgMissLatency::total 61359.779869                       # average overall miss latency ((Tick/Count))
system.cpu0.icache.blockedCycles::no_mshrs         1180                       # number of cycles access was blocked (Cycle)
system.cpu0.icache.blockedCycles::no_targets            0                       # number of cycles access was blocked (Cycle)
system.cpu0.icache.blockedCauses::no_mshrs           14                       # number of times access was blocked (Count)
system.cpu0.icache.blockedCauses::no_targets            0                       # number of times access was blocked (Count)
system.cpu0.icache.avgBlocked::no_mshrs     84.285714                       # average number of cycles each access was blocked ((Cycle/Count))
system.cpu0.icache.avgBlocked::no_targets          nan                       # average number of cycles each access was blocked ((Cycle/Count))
system.cpu0.icache.writebacks::writebacks         2249                       # number of writebacks (Count)
system.cpu0.icache.writebacks::total             2249                       # number of writebacks (Count)
system.cpu0.icache.demandMshrHits::cpu0.inst          735                       # number of demand (read+write) MSHR hits (Count)
system.cpu0.icache.demandMshrHits::total          735                       # number of demand (read+write) MSHR hits (Count)
system.cpu0.icache.overallMshrHits::cpu0.inst          735                       # number of overall MSHR hits (Count)
system.cpu0.icache.overallMshrHits::total          735                       # number of overall MSHR hits (Count)
system.cpu0.icache.demandMshrMisses::cpu0.inst         2772                       # number of demand (read+write) MSHR misses (Count)
system.cpu0.icache.demandMshrMisses::total         2772                       # number of demand (read+write) MSHR misses (Count)
system.cpu0.icache.overallMshrMisses::cpu0.inst         2772                       # number of overall MSHR misses (Count)
system.cpu0.icache.overallMshrMisses::total         2772                       # number of overall MSHR misses (Count)
system.cpu0.icache.demandMshrMissLatency::cpu0.inst    173506749                       # number of demand (read+write) MSHR miss ticks (Tick)
system.cpu0.icache.demandMshrMissLatency::total    173506749                       # number of demand (read+write) MSHR miss ticks (Tick)
system.cpu0.icache.overallMshrMissLatency::cpu0.inst    173506749                       # number of overall MSHR miss ticks (Tick)
system.cpu0.icache.overallMshrMissLatency::total    173506749                       # number of overall MSHR miss ticks (Tick)
system.cpu0.icache.demandMshrMissRate::cpu0.inst     0.000518                       # mshr miss ratio for demand accesses (Ratio)
system.cpu0.icache.demandMshrMissRate::total     0.000518                       # mshr miss ratio for demand accesses (Ratio)
system.cpu0.icache.overallMshrMissRate::cpu0.inst     0.000518                       # mshr miss ratio for overall accesses (Ratio)
system.cpu0.icache.overallMshrMissRate::total     0.000518                       # mshr miss ratio for overall accesses (Ratio)
system.cpu0.icache.demandAvgMshrMissLatency::cpu0.inst 62592.622294                       # average overall mshr miss latency ((Tick/Count))
system.cpu0.icache.demandAvgMshrMissLatency::total 62592.622294                       # average overall mshr miss latency ((Tick/Count))
system.cpu0.icache.overallAvgMshrMissLatency::cpu0.inst 62592.622294                       # average overall mshr miss latency ((Tick/Count))
system.cpu0.icache.overallAvgMshrMissLatency::total 62592.622294                       # average overall mshr miss latency ((Tick/Count))
system.cpu0.icache.replacements                  2249                       # number of replacements (Count)
system.cpu0.icache.ReadReq.hits::cpu0.inst      5347523                       # number of ReadReq hits (Count)
system.cpu0.icache.ReadReq.hits::total        5347523                       # number of ReadReq hits (Count)
system.cpu0.icache.ReadReq.misses::cpu0.inst         3507                       # number of ReadReq misses (Count)
system.cpu0.icache.ReadReq.misses::total         3507                       # number of ReadReq misses (Count)
system.cpu0.icache.ReadReq.missLatency::cpu0.inst    215188748                       # number of ReadReq miss ticks (Tick)
system.cpu0.icache.ReadReq.missLatency::total    215188748                       # number of ReadReq miss ticks (Tick)
system.cpu0.icache.ReadReq.accesses::cpu0.inst      5351030                       # number of ReadReq accesses(hits+misses) (Count)
system.cpu0.icache.ReadReq.accesses::total      5351030                       # number of ReadReq accesses(hits+misses) (Count)
system.cpu0.icache.ReadReq.missRate::cpu0.inst     0.000655                       # miss rate for ReadReq accesses (Ratio)
system.cpu0.icache.ReadReq.missRate::total     0.000655                       # miss rate for ReadReq accesses (Ratio)
system.cpu0.icache.ReadReq.avgMissLatency::cpu0.inst 61359.779869                       # average ReadReq miss latency ((Tick/Count))
system.cpu0.icache.ReadReq.avgMissLatency::total 61359.779869                       # average ReadReq miss latency ((Tick/Count))
system.cpu0.icache.ReadReq.mshrHits::cpu0.inst          735                       # number of ReadReq MSHR hits (Count)
system.cpu0.icache.ReadReq.mshrHits::total          735                       # number of ReadReq MSHR hits (Count)
system.cpu0.icache.ReadReq.mshrMisses::cpu0.inst         2772                       # number of ReadReq MSHR misses (Count)
system.cpu0.icache.ReadReq.mshrMisses::total         2772                       # number of ReadReq MSHR misses (Count)
system.cpu0.icache.ReadReq.mshrMissLatency::cpu0.inst    173506749                       # number of ReadReq MSHR miss ticks (Tick)
system.cpu0.icache.ReadReq.mshrMissLatency::total    173506749                       # number of ReadReq MSHR miss ticks (Tick)
system.cpu0.icache.ReadReq.mshrMissRate::cpu0.inst     0.000518                       # mshr miss rate for ReadReq accesses (Ratio)
system.cpu0.icache.ReadReq.mshrMissRate::total     0.000518                       # mshr miss rate for ReadReq accesses (Ratio)
system.cpu0.icache.ReadReq.avgMshrMissLatency::cpu0.inst 62592.622294                       # average ReadReq mshr miss latency ((Tick/Count))
system.cpu0.icache.ReadReq.avgMshrMissLatency::total 62592.622294                       # average ReadReq mshr miss latency ((Tick/Count))
system.cpu0.icache.power_state.pwrStateResidencyTicks::UNDEFINED  37279551500                       # Cumulative time (in ticks) in various power states (Tick)
system.cpu0.icache.tags.tagsInUse          509.180521                       # Average ticks per tags in use ((Tick/Count))
system.cpu0.icache.tags.totalRefs             5350294                       # Total number of references to valid blocks. (Count)
system.cpu0.icache.tags.sampledRefs              2771                       # Sample count of references to valid blocks. (Count)
system.cpu0.icache.tags.avgRefs           1930.817034                       # Average number of references to valid blocks. ((Count/Count))
system.cpu0.icache.tags.warmupTick              80000                       # The tick when the warmup percentage was hit. (Tick)
system.cpu0.icache.tags.occupancies::cpu0.inst   509.180521                       # Average occupied blocks per tick, per requestor ((Count/Tick))
system.cpu0.icache.tags.avgOccs::cpu0.inst     0.994493                       # Average percentage of cache occupancy ((Ratio/Tick))
system.cpu0.icache.tags.avgOccs::total       0.994493                       # Average percentage of cache occupancy ((Ratio/Tick))
system.cpu0.icache.tags.occupanciesTaskId::1024          512                       # Occupied blocks per task id (Count)
system.cpu0.icache.tags.ageTaskId_1024::0          115                       # Occupied blocks per task id, per block age (Count)
system.cpu0.icache.tags.ageTaskId_1024::1           75                       # Occupied blocks per task id, per block age (Count)
system.cpu0.icache.tags.ageTaskId_1024::4          322                       # Occupied blocks per task id, per block age (Count)
system.cpu0.icache.tags.ratioOccsTaskId::1024            1                       # Ratio of occupied blocks and all blocks, per task id (Ratio)
system.cpu0.icache.tags.tagAccesses          10704831                       # Number of tag accesses (Count)
system.cpu0.icache.tags.dataAccesses         10704831                       # Number of data accesses (Count)
system.cpu0.icache.tags.power_state.pwrStateResidencyTicks::UNDEFINED  37279551500                       # Cumulative time (in ticks) in various power states (Tick)
system.cpu0.iew.idleCycles                          0                       # Number of cycles IEW is idle (Cycle)
system.cpu0.iew.squashCycles                   261923                       # Number of cycles IEW is squashing (Cycle)
system.cpu0.iew.blockCycles                  33227860                       # Number of cycles IEW is blocking (Cycle)
system.cpu0.iew.unblockCycles                10078508                       # Number of cycles IEW is unblocking (Cycle)
system.cpu0.iew.dispatchedInsts              77109816                       # Number of instructions dispatched to IQ (Count)
system.cpu0.iew.dispSquashedInsts                 991                       # Number of squashed instructions skipped by dispatch (Count)
system.cpu0.iew.dispLoadInsts                15740295                       # Number of dispatched load instructions (Count)
system.cpu0.iew.dispStoreInsts               10823394                       # Number of dispatched store instructions (Count)
system.cpu0.iew.dispNonSpecInsts                  575                       # Number of dispatched non-speculative instructions (Count)
system.cpu0.iew.iqFullEvents                   165148                       # Number of times the IQ has become full, causing a stall (Count)
system.cpu0.iew.lsqFullEvents                 9835189                       # Number of times the LSQ has become full, causing a stall (Count)
system.cpu0.iew.memOrderViolationEvents           329                       # Number of memory order violations (Count)
system.cpu0.iew.predictedTakenIncorrect          2767                       # Number of branches that were predicted taken incorrectly (Count)
system.cpu0.iew.predictedNotTakenIncorrect         7705                       # Number of branches that were predicted not taken incorrectly (Count)
system.cpu0.iew.branchMispredicts               10472                       # Number of branch mispredicts detected at execute (Count)
system.cpu0.iew.instsToCommit                76945376                       # Cumulative count of insts sent to commit (Count)
[...]
system.membus.pktSize_system.cpu7.dcache.mem_side_port::system.mem_ctrls15.port      2000832                       # Cumulative packet size per connected requestor and responder (Byte)
system.membus.pktSize_system.cpu7.dcache.mem_side_port::system.mem_ctrls16.port      1999872                       # Cumulative packet size per connected requestor and responder (Byte)
system.membus.pktSize_system.cpu7.dcache.mem_side_port::system.mem_ctrls17.port      2001856                       # Cumulative packet size per connected requestor and responder (Byte)
system.membus.pktSize_system.cpu7.dcache.mem_side_port::system.mem_ctrls18.port      2001088                       # Cumulative packet size per connected requestor and responder (Byte)
system.membus.pktSize_system.cpu7.dcache.mem_side_port::system.mem_ctrls19.port      1999808                       # Cumulative packet size per connected requestor and responder (Byte)
system.membus.pktSize_system.cpu7.dcache.mem_side_port::system.mem_ctrls20.port      1999872                       # Cumulative packet size per connected requestor and responder (Byte)
system.membus.pktSize_system.cpu7.dcache.mem_side_port::system.mem_ctrls21.port      1999872                       # Cumulative packet size per connected requestor and responder (Byte)
system.membus.pktSize_system.cpu7.dcache.mem_side_port::system.mem_ctrls22.port      1999808                       # Cumulative packet size per connected requestor and responder (Byte)
system.membus.pktSize_system.cpu7.dcache.mem_side_port::system.mem_ctrls23.port      2000768                       # Cumulative packet size per connected requestor and responder (Byte)
system.membus.pktSize_system.cpu7.dcache.mem_side_port::system.mem_ctrls24.port      2002368                       # Cumulative packet size per connected requestor and responder (Byte)
system.membus.pktSize_system.cpu7.dcache.mem_side_port::system.mem_ctrls25.port      2000000                       # Cumulative packet size per connected requestor and responder (Byte)
system.membus.pktSize_system.cpu7.dcache.mem_side_port::system.mem_ctrls26.port      2001280                       # Cumulative packet size per connected requestor and responder (Byte)
system.membus.pktSize_system.cpu7.dcache.mem_side_port::system.mem_ctrls27.port      2000256                       # Cumulative packet size per connected requestor and responder (Byte)
system.membus.pktSize_system.cpu7.dcache.mem_side_port::system.mem_ctrls28.port      2000128                       # Cumulative packet size per connected requestor and responder (Byte)
system.membus.pktSize_system.cpu7.dcache.mem_side_port::system.mem_ctrls29.port      1998912                       # Cumulative packet size per connected requestor and responder (Byte)
system.membus.pktSize_system.cpu7.dcache.mem_side_port::system.mem_ctrls30.port      2000960                       # Cumulative packet size per connected requestor and responder (Byte)
system.membus.pktSize_system.cpu7.dcache.mem_side_port::system.mem_ctrls31.port      1999424                       # Cumulative packet size per connected requestor and responder (Byte)
system.membus.pktSize_system.cpu7.dcache.mem_side_port::total     64010752                       # Cumulative packet size per connected requestor and responder (Byte)
system.membus.pktSize::total                536949952                       # Cumulative packet size per connected requestor and responder (Byte)
system.membus.snoops                             2695                       # Total snoops (Count)
system.membus.snoopTraffic                     159552                       # Total snoop traffic (Byte)
system.membus.snoopFanout::samples            5888578                       # Request fanout histogram (Count)
system.membus.snoopFanout::mean              0.003411                       # Request fanout histogram (Count)
system.membus.snoopFanout::stdev             0.108661                       # Request fanout histogram (Count)
system.membus.snoopFanout::underflows               0      0.00%      0.00% # Request fanout histogram (Count)
system.membus.snoopFanout::0                  5877118     99.81%     99.81% # Request fanout histogram (Count)
system.membus.snoopFanout::1                     9091      0.15%     99.96% # Request fanout histogram (Count)
system.membus.snoopFanout::2                      470      0.01%     99.97% # Request fanout histogram (Count)
system.membus.snoopFanout::3                      428      0.01%     99.98% # Request fanout histogram (Count)
system.membus.snoopFanout::4                      267      0.00%     99.98% # Request fanout histogram (Count)
system.membus.snoopFanout::5                      269      0.00%     99.98% # Request fanout histogram (Count)
system.membus.snoopFanout::6                      263      0.00%     99.99% # Request fanout histogram (Count)
system.membus.snoopFanout::7                      639      0.01%    100.00% # Request fanout histogram (Count)
system.membus.snoopFanout::8                       17      0.00%    100.00% # Request fanout histogram (Count)
system.membus.snoopFanout::9                        4      0.00%    100.00% # Request fanout histogram (Count)
system.membus.snoopFanout::10                       4      0.00%    100.00% # Request fanout histogram (Count)
system.membus.snoopFanout::11                       3      0.00%    100.00% # Request fanout histogram (Count)
system.membus.snoopFanout::12                       2      0.00%    100.00% # Request fanout histogram (Count)
system.membus.snoopFanout::13                       2      0.00%    100.00% # Request fanout histogram (Count)
system.membus.snoopFanout::14                       1      0.00%    100.00% # Request fanout histogram (Count)
system.membus.snoopFanout::15                       0      0.00%    100.00% # Request fanout histogram (Count)
system.membus.snoopFanout::16                       0      0.00%    100.00% # Request fanout histogram (Count)
system.membus.snoopFanout::17                       0      0.00%    100.00% # Request fanout histogram (Count)
system.membus.snoopFanout::18                       0      0.00%    100.00% # Request fanout histogram (Count)
system.membus.snoopFanout::19                       0      0.00%    100.00% # Request fanout histogram (Count)
system.membus.snoopFanout::20                       0      0.00%    100.00% # Request fanout histogram (Count)
system.membus.snoopFanout::21                       0      0.00%    100.00% # Request fanout histogram (Count)
system.membus.snoopFanout::22                       0      0.00%    100.00% # Request fanout histogram (Count)
system.membus.snoopFanout::23                       0      0.00%    100.00% # Request fanout histogram (Count)
system.membus.snoopFanout::24                       0      0.00%    100.00% # Request fanout histogram (Count)
system.membus.snoopFanout::25                       0      0.00%    100.00% # Request fanout histogram (Count)
system.membus.snoopFanout::26                       0      0.00%    100.00% # Request fanout histogram (Count)
system.membus.snoopFanout::27                       0      0.00%    100.00% # Request fanout histogram (Count)
system.membus.snoopFanout::28                       0      0.00%    100.00% # Request fanout histogram (Count)
system.membus.snoopFanout::29                       0      0.00%    100.00% # Request fanout histogram (Count)
system.membus.snoopFanout::30                       0      0.00%    100.00% # Request fanout histogram (Count)
system.membus.snoopFanout::31                       0      0.00%    100.00% # Request fanout histogram (Count)
system.membus.snoopFanout::32                       0      0.00%    100.00% # Request fanout histogram (Count)
system.membus.snoopFanout::overflows                0      0.00%    100.00% # Request fanout histogram (Count)
system.membus.snoopFanout::min_value                0                       # Request fanout histogram (Count)
system.membus.snoopFanout::max_value               14                       # Request fanout histogram (Count)
system.membus.snoopFanout::total              5888578                       # Request fanout histogram (Count)
system.membus.power_state.pwrStateResidencyTicks::UNDEFINED  37279551500                       # Cumulative time (in ticks) in various power states (Tick)
system.membus.reqLayer16.occupancy          838634059                       # Layer occupancy (ticks) (Tick)
system.membus.reqLayer16.utilization              0.0                       # Layer utilization (Ratio)
system.membus.reqLayer17.occupancy          838381984                       # Layer occupancy (ticks) (Tick)
system.membus.reqLayer17.utilization              0.0                       # Layer utilization (Ratio)
system.membus.reqLayer18.occupancy          838286552                       # Layer occupancy (ticks) (Tick)
system.membus.reqLayer18.utilization              0.0                       # Layer utilization (Ratio)
system.membus.reqLayer19.occupancy          838400767                       # Layer occupancy (ticks) (Tick)
system.membus.reqLayer19.utilization              0.0                       # Layer utilization (Ratio)
system.membus.reqLayer20.occupancy          838538507                       # Layer occupancy (ticks) (Tick)
system.membus.reqLayer20.utilization              0.0                       # Layer utilization (Ratio)
system.membus.reqLayer21.occupancy          838632987                       # Layer occupancy (ticks) (Tick)
system.membus.reqLayer21.utilization              0.0                       # Layer utilization (Ratio)
system.membus.reqLayer22.occupancy          838336512                       # Layer occupancy (ticks) (Tick)
system.membus.reqLayer22.utilization              0.0                       # Layer utilization (Ratio)
system.membus.reqLayer23.occupancy          838305661                       # Layer occupancy (ticks) (Tick)
system.membus.reqLayer23.utilization              0.0                       # Layer utilization (Ratio)
system.membus.reqLayer24.occupancy          838308640                       # Layer occupancy (ticks) (Tick)
system.membus.reqLayer24.utilization              0.0                       # Layer utilization (Ratio)
system.membus.reqLayer25.occupancy          838294009                       # Layer occupancy (ticks) (Tick)
system.membus.reqLayer25.utilization              0.0                       # Layer utilization (Ratio)
system.membus.reqLayer26.occupancy          838184264                       # Layer occupancy (ticks) (Tick)
system.membus.reqLayer26.utilization              0.0                       # Layer utilization (Ratio)
system.membus.reqLayer27.occupancy          838483334                       # Layer occupancy (ticks) (Tick)
system.membus.reqLayer27.utilization              0.0                       # Layer utilization (Ratio)
system.membus.reqLayer28.occupancy          838613118                       # Layer occupancy (ticks) (Tick)
system.membus.reqLayer28.utilization              0.0                       # Layer utilization (Ratio)
system.membus.reqLayer29.occupancy          839052663                       # Layer occupancy (ticks) (Tick)
system.membus.reqLayer29.utilization              0.0                       # Layer utilization (Ratio)
system.membus.reqLayer30.occupancy          839017209                       # Layer occupancy (ticks) (Tick)
system.membus.reqLayer30.utilization              0.0                       # Layer utilization (Ratio)
system.membus.reqLayer31.occupancy          839330903                       # Layer occupancy (ticks) (Tick)
system.membus.reqLayer31.utilization              0.0                       # Layer utilization (Ratio)
system.membus.reqLayer32.occupancy          838680328                       # Layer occupancy (ticks) (Tick)
system.membus.reqLayer32.utilization              0.0                       # Layer utilization (Ratio)
system.membus.reqLayer33.occupancy          838746350                       # Layer occupancy (ticks) (Tick)
system.membus.reqLayer33.utilization              0.0                       # Layer utilization (Ratio)
system.membus.reqLayer34.occupancy          838900378                       # Layer occupancy (ticks) (Tick)
system.membus.reqLayer34.utilization              0.0                       # Layer utilization (Ratio)
system.membus.reqLayer35.occupancy          838353012                       # Layer occupancy (ticks) (Tick)
system.membus.reqLayer35.utilization              0.0                       # Layer utilization (Ratio)
system.membus.reqLayer36.occupancy          838352659                       # Layer occupancy (ticks) (Tick)
system.membus.reqLayer36.utilization              0.0                       # Layer utilization (Ratio)
system.membus.reqLayer37.occupancy          838331185                       # Layer occupancy (ticks) (Tick)
system.membus.reqLayer37.utilization              0.0                       # Layer utilization (Ratio)
system.membus.reqLayer38.occupancy          838517277                       # Layer occupancy (ticks) (Tick)
system.membus.reqLayer38.utilization              0.0                       # Layer utilization (Ratio)
system.membus.reqLayer39.occupancy          838799767                       # Layer occupancy (ticks) (Tick)
system.membus.reqLayer39.utilization              0.0                       # Layer utilization (Ratio)
system.membus.reqLayer40.occupancy          839587556                       # Layer occupancy (ticks) (Tick)
system.membus.reqLayer40.utilization              0.0                       # Layer utilization (Ratio)
system.membus.reqLayer41.occupancy          838381785                       # Layer occupancy (ticks) (Tick)
system.membus.reqLayer41.utilization              0.0                       # Layer utilization (Ratio)
system.membus.reqLayer42.occupancy          839614676                       # Layer occupancy (ticks) (Tick)
system.membus.reqLayer42.utilization              0.0                       # Layer utilization (Ratio)
system.membus.reqLayer43.occupancy          840108558                       # Layer occupancy (ticks) (Tick)
system.membus.reqLayer43.utilization              0.0                       # Layer utilization (Ratio)
system.membus.reqLayer44.occupancy          838583033                       # Layer occupancy (ticks) (Tick)
system.membus.reqLayer44.utilization              0.0                       # Layer utilization (Ratio)
system.membus.reqLayer45.occupancy          838341104                       # Layer occupancy (ticks) (Tick)
system.membus.reqLayer45.utilization              0.0                       # Layer utilization (Ratio)
system.membus.reqLayer46.occupancy          839014649                       # Layer occupancy (ticks) (Tick)
system.membus.reqLayer46.utilization              0.0                       # Layer utilization (Ratio)
system.membus.reqLayer47.occupancy          838594117                       # Layer occupancy (ticks) (Tick)
system.membus.reqLayer47.utilization              0.0                       # Layer utilization (Ratio)
system.membus.respLayer1.occupancy           13920750                       # Layer occupancy (ticks) (Tick)
system.membus.respLayer1.utilization              0.0                       # Layer utilization (Ratio)
system.membus.respLayer11.occupancy            841249                       # Layer occupancy (ticks) (Tick)
system.membus.respLayer11.utilization             0.0                       # Layer utilization (Ratio)
system.membus.respLayer12.occupancy        3453725246                       # Layer occupancy (ticks) (Tick)
system.membus.respLayer12.utilization             0.1                       # Layer utilization (Ratio)
system.membus.respLayer16.occupancy            784501                       # Layer occupancy (ticks) (Tick)
system.membus.respLayer16.utilization             0.0                       # Layer utilization (Ratio)
system.membus.respLayer17.occupancy        3455075223                       # Layer occupancy (ticks) (Tick)
system.membus.respLayer17.utilization             0.1                       # Layer utilization (Ratio)
system.membus.respLayer2.occupancy         5366053892                       # Layer occupancy (ticks) (Tick)
system.membus.respLayer2.utilization              0.1                       # Layer utilization (Ratio)
system.membus.respLayer21.occupancy            444750                       # Layer occupancy (ticks) (Tick)
system.membus.respLayer21.utilization             0.0                       # Layer utilization (Ratio)
system.membus.respLayer22.occupancy        3454238288                       # Layer occupancy (ticks) (Tick)
system.membus.respLayer22.utilization             0.1                       # Layer utilization (Ratio)
system.membus.respLayer26.occupancy            449500                       # Layer occupancy (ticks) (Tick)
system.membus.respLayer26.utilization             0.0                       # Layer utilization (Ratio)
system.membus.respLayer27.occupancy        3453251867                       # Layer occupancy (ticks) (Tick)
system.membus.respLayer27.utilization             0.1                       # Layer utilization (Ratio)
system.membus.respLayer31.occupancy            443000                       # Layer occupancy (ticks) (Tick)
system.membus.respLayer31.utilization             0.0                       # Layer utilization (Ratio)
system.membus.respLayer32.occupancy        3452758222                       # Layer occupancy (ticks) (Tick)
system.membus.respLayer32.utilization             0.1                       # Layer utilization (Ratio)
system.membus.respLayer36.occupancy            453500                       # Layer occupancy (ticks) (Tick)
system.membus.respLayer36.utilization             0.0                       # Layer utilization (Ratio)
system.membus.respLayer37.occupancy        3453155086                       # Layer occupancy (ticks) (Tick)
system.membus.respLayer37.utilization             0.1                       # Layer utilization (Ratio)
system.membus.respLayer6.occupancy             806999                       # Layer occupancy (ticks) (Tick)
system.membus.respLayer6.utilization              0.0                       # Layer utilization (Ratio)
system.membus.respLayer7.occupancy         3454057602                       # Layer occupancy (ticks) (Tick)
system.membus.respLayer7.utilization              0.1                       # Layer utilization (Ratio)
system.membus.snoop_filter.totRequests       11766093                       # Total number of requests made to the snoop filter. (Count)
system.membus.snoop_filter.hitSingleRequests      5877887                       # Number of requests hitting in the snoop filter with a single holder of the requested data. (Count)
system.membus.snoop_filter.hitMultiRequests        11283                       # Number of requests hitting in the snoop filter with multiple (>1) holders of the requested data. (Count)
system.membus.snoop_filter.totSnoops                0                       # Total number of snoops made to the snoop filter. (Count)
system.membus.snoop_filter.hitSingleSnoops            0                       # Number of snoops hitting in the snoop filter with a single holder of the requested data. (Count)
system.membus.snoop_filter.hitMultiSnoops            0                       # Number of snoops hitting in the snoop filter with multiple (>1) holders of the requested data. (Count)
system.voltage_domain.voltage                       1                       # Voltage in Volts (Volt)
system.workload.inst.arm                            0                       # number of arm instructions executed (Count)
system.workload.inst.quiesce                        0                       # number of quiesce instructions executed (Count)

---------- End Simulation Statistics   ----------
